19
Iteration:   602
 C         1.274570         3.083027         0.222847
 C         2.007230         1.750901         0.106350
 C         3.024338         1.203757         1.094189
 O         3.700519         0.141703         0.269183
 C         2.746100        -0.069399        -0.751052
 C         2.541443         1.324398        -1.346244
 O         1.129671         0.972912        -1.738868
 C         1.213416         0.440433        -0.360396
 C         0.014299        -0.239565         0.170959
 H         0.737762         3.075147         1.147572
 H         2.026056         3.958556         0.257128
 H         0.556644         3.271508        -0.654060
 H         3.693060         1.973746         1.476063
 H         2.601653         0.707376         2.015619
 H         3.029116        -0.962366        -1.399840
 H         3.361951         1.566350        -2.067033
 H        -0.066047        -0.267870         1.277594
 H        -0.891293         0.350986        -0.079529
 H        -0.102663        -1.244921        -0.282749
