19
Iteration:  2119
 C         1.177712         3.067780         0.197373
 C         1.951904         1.732973         0.080042
 C         3.026290         1.291865         1.093171
 O         3.672856         0.109899         0.376287
 C         2.858515        -0.081962        -0.746184
 C         2.539751         1.271885        -1.384440
 O         1.195414         0.912109        -1.811613
 C         1.208339         0.486678        -0.354371
 C         0.019077        -0.166031         0.226746
 H         0.613430         2.990018         1.097302
 H         1.739328         3.949605        -0.067375
 H         0.395667         3.116592        -0.718000
 H         3.736465         2.142886         1.396261
 H         2.543884         0.798393         1.978645
 H         2.871011        -1.123315        -1.304469
 H         3.344685         1.771289        -2.067210
 H         0.541860        -0.346993         1.249274
 H        -0.858867         0.435661         0.111597
 H        -0.111327        -1.142063        -0.240895
