19
Iteration:  4528charge 0 multiplicity 1
 C         1.293836         3.072746         0.295224
 C         2.080620         1.830487         0.067410
 C         3.011065         1.314636         1.085617
 O         3.475565         0.094857         0.477502
 C         2.655344        -0.038183        -0.675395
 C         2.538331         1.308789        -1.369255
 O         1.175777         0.999570        -1.820364
 C         1.256292         0.414930        -0.474646
 C         0.132119        -0.362890         0.076084
 H         0.771315         3.156452         1.281135
 H         1.878474         3.920263         0.220596
 H         0.657830         3.254379        -0.541068
 H         3.910511         1.994290         1.118163
 H         2.776640         0.961208         2.137864
 H         2.972937        -0.925676        -1.351318
 H         3.250346         1.621263        -2.169187
 H         0.610687        -0.774348         0.960501
 H        -0.804140         0.178033         0.198368
 H         0.018284        -1.196510        -0.609077
