19
Iteration:  1427
 C         1.399406         3.032475         0.215349
 C         1.962790         1.725687         0.060522
 C         2.998079         1.301125         1.125008
 O         3.705069         0.299791         0.373913
 C         2.714541        -0.083764        -0.652511
 C         2.518498         1.292021        -1.393106
 O         1.103097         0.853008        -1.871908
 C         1.217124         0.415751        -0.389586
 C         0.003117        -0.236299         0.179782
 H         1.041157         3.186788         1.213533
 H         2.189024         3.651881         0.165842
 H         0.573545         3.255033        -0.462898
 H         3.710541         1.986092         1.519837
 H         2.467260         0.809952         1.977658
 H         3.058633        -0.858947        -1.246327
 H         3.376934         1.595261        -1.994305
 H         0.123266        -0.425657         1.207780
 H        -0.923703         0.396201        -0.023495
 H        -0.227368        -1.219421        -0.322420
