19
Iteration:  2846charge 0 multiplicity 1
 C         1.158115         3.091122         0.192838
 C         1.993708         1.749791         0.005273
 C         3.022228         1.381167         1.007760
 O         3.539345        -0.021447         0.421075
 C         2.780352        -0.087071        -0.731400
 C         2.568115         1.310996        -1.320891
 O         1.220989         0.938699        -1.805372
 C         1.224863         0.482542        -0.452968
 C         0.137207        -0.241717         0.283254
 H         0.674030         3.091476         1.251158
 H         1.843169         4.050600         0.126939
 H         0.348025         3.057529        -0.504457
 H         3.941098         2.075507         1.104683
 H         2.671972         1.115352         2.021548
 H         2.981350        -0.745428        -1.469096
 H         3.295589         1.785193        -1.925095
 H         0.574825        -0.594752         1.287622
 H        -0.686042         0.530556         0.377827
 H        -0.341934        -1.107825        -0.115141
