19
Iteration:  1379
 C         1.162743         3.001304         0.210821
 C         2.057377         1.800907         0.015593
 C         3.250029         1.373612         0.931628
 O         3.397246         0.026395         0.594158
 C         2.724109        -0.006984        -0.677264
 C         2.560565         1.360820        -1.397833
 O         1.137453         0.881069        -1.842401
 C         1.285563         0.423814        -0.451698
 C         0.167029        -0.241067         0.222901
 H         0.262159         2.762939         0.927444
 H         1.714598         3.824242         0.838992
 H         0.594755         3.284106        -0.677391
 H         4.161040         1.885455         0.600103
 H         3.120262         1.486374         2.079541
 H         2.688905        -1.001387        -1.274742
 H         3.103043         2.075871        -2.027093
 H         0.412757        -0.787889         1.227646
 H        -0.670399         0.464738         0.359476
 H        -0.350269        -0.885637        -0.511899
