19
Iteration:  3121charge 0 multiplicity 1
 C         1.210273         3.102675         0.209612
 C         2.001807         1.763466         0.017503
 C         3.056476         1.234638         1.054957
 O         3.485634         0.035760         0.484442
 C         2.743984        -0.022466        -0.705413
 C         2.598970         1.366353        -1.379409
 O         1.137735         0.879095        -1.810722
 C         1.302607         0.527423        -0.437971
 C         0.155472        -0.271694         0.196151
 H         0.882038         3.212620         1.290671
 H         2.009328         3.936763         0.034224
 H         0.390885         3.231089        -0.427817
 H         3.932965         1.983745         0.944223
 H         2.843178         1.181849         2.117589
 H         2.782466        -1.121617        -1.171933
 H         2.939695         2.123331        -2.090138
 H         0.367577        -0.471212         1.251056
 H        -0.770753         0.309234         0.094044
 H        -0.105662        -1.251201        -0.468034
