19
Iteration:  3355charge 0 multiplicity 1
 C         1.255792         3.072117         0.234677
 C         1.945140         1.741469         0.021881
 C         3.087036         1.271688         1.084983
 O         3.613774         0.088644         0.440976
 C         2.810890         0.017552        -0.814520
 C         2.525411         1.347698        -1.346585
 O         1.217856         0.822013        -1.829279
 C         1.294488         0.389527        -0.365734
 C        -0.023014        -0.152733         0.198350
 H         0.514508         3.029077         1.124258
 H         1.887941         3.819834         0.603807
 H         0.599416         3.465729        -0.696443
 H         3.881551         1.947397         1.402983
 H         2.646390         0.881029         1.975746
 H         2.726060        -0.955413        -1.412627
 H         3.066104         1.963744        -2.156210
 H         0.229097        -0.685149         1.140506
 H        -0.861834         0.547502         0.421385
 H        -0.651783        -0.656660        -0.531611
