19
Iteration:  1179charge 0 multiplicity 1
 C         1.174952         3.096583         0.237611
 C         2.021230         1.792656        -0.051104
 C         2.964399         1.259695         1.045794
 O         3.618016         0.098236         0.380207
 C         2.790036        -0.106587        -0.715809
 C         2.513544         1.288233        -1.397777
 O         1.169753         0.887536        -1.795936
 C         1.268073         0.412666        -0.451833
 C         0.169546        -0.125437         0.331120
 H         0.598987         3.130050         1.148021
 H         1.859585         3.946849         0.295583
 H         0.465756         3.262911        -0.698838
 H         3.649626         1.871493         1.600636
 H         2.252826         0.854981         1.850350
 H         3.011514        -0.886158        -1.279085
 H         3.206547         1.944612        -2.048214
 H         0.545709        -0.728276         1.123890
 H        -0.615792         0.593185         0.712498
 H        -0.313023        -0.996617        -0.218396
