19
Iteration:    73charge 0 multiplicity 1
 C         1.283743         3.093959         0.200223
 C         1.975894         1.768563         0.036048
 C         3.015282         1.363597         1.004394
 O         3.545101         0.152010         0.449548
 C         2.737257        -0.066153        -0.644053
 C         2.509112         1.329432        -1.365707
 O         1.194853         0.922252        -1.798587
 C         1.275678         0.358750        -0.409445
 C         0.113523        -0.352611         0.143396
 H         0.470881         3.098130         0.954226
 H         2.013983         3.820954         0.510048
 H         0.835977         3.487997        -0.813662
 H         3.891968         2.095002         1.215493
 H         2.586591         1.138645         2.092328
 H         3.106883        -1.052498        -1.127252
 H         3.072101         1.868876        -2.138287
 H         0.497098        -0.910166         1.138753
 H        -0.585516         0.483666         0.463349
 H        -0.573029        -0.985210        -0.472164
