19
Iteration:  3911charge 0 multiplicity 1
 C         1.176910         2.979729         0.228893
 C         2.071779         1.778295         0.041598
 C         3.030721         1.193036         1.052620
 O         3.662287         0.098997         0.415918
 C         2.760217         0.012871        -0.646800
 C         2.562487         1.310064        -1.405823
 O         1.194111         0.941951        -1.835368
 C         1.208186         0.508843        -0.391902
 C         0.022291        -0.187417         0.159129
 H         0.847742         2.950111         1.188673
 H         1.630539         3.985893         0.340189
 H         0.283307         3.099626        -0.456651
 H         3.892142         1.837308         1.467791
 H         2.514744         0.751236         1.949576
 H         2.887443        -0.981755        -1.211229
 H         3.131937         1.662024        -2.223685
 H         0.290588        -0.577683         1.219227
 H        -0.783053         0.597523         0.290568
 H        -0.298549        -0.940304        -0.492156
