19
Iteration:  4985charge 0 multiplicity 1
 C         1.268388         3.003911         0.262150
 C         1.999444         1.778483         0.073115
 C         3.010101         1.324875         1.066793
 O         3.604671         0.032689         0.402373
 C         2.810868        -0.009678        -0.734978
 C         2.545693         1.402243        -1.318919
 O         1.157898         0.865725        -1.835428
 C         1.246221         0.418406        -0.433272
 C         0.029149        -0.217401         0.157585
 H         0.423460         3.051937         1.038224
 H         1.908612         3.873113         0.610504
 H         0.828887         3.271364        -0.700616
 H         3.785701         2.075350         1.136061
 H         2.650481         0.875538         2.034265
 H         3.024046        -0.931856        -1.246087
 H         3.124719         2.091258        -2.037076
 H         0.293622        -0.743052         1.181173
 H        -0.584033         0.680770         0.395810
 H        -0.490064        -0.854123        -0.538197
