19
Iteration:  1924charge 0 multiplicity 1
 C         1.098905         2.975776         0.352434
 C         2.073455         1.810393        -0.062523
 C         3.166555         1.348894         0.919428
 O         3.402295         0.000796         0.596334
 C         2.752811        -0.064685        -0.624283
 C         2.500996         1.371106        -1.418698
 O         1.173519         0.878923        -1.846887
 C         1.377889         0.471246        -0.498479
 C         0.177727        -0.163218         0.170579
 H         0.551509         2.856351         1.242921
 H         1.589331         4.031066         0.459740
 H         0.500663         3.025738        -0.597545
 H         4.114630         1.785633         0.858902
 H         2.659064         1.601300         1.932447
 H         2.971247        -1.004728        -1.148415
 H         2.964958         1.918894        -2.324635
 H         0.424523        -0.441948         1.249706
 H        -0.685486         0.505267         0.315790
 H        -0.002244        -1.170493        -0.223205
