19
Iteration:   751
 C         1.308781         3.141738         0.182984
 C         2.006036         1.802719         0.088650
 C         3.039588         1.222530         1.099493
 O         3.655070         0.124636         0.277343
 C         2.716532        -0.051648        -0.723217
 C         2.505702         1.286631        -1.327209
 O         1.185342         0.989805        -1.766157
 C         1.208714         0.462765        -0.380132
 C         0.030806        -0.345864         0.193951
 H         0.676794         3.071126         1.224469
 H         1.987368         3.984054         0.266721
 H         0.653727         3.316120        -0.598598
 H         3.761187         2.000191         1.456235
 H         2.615719         0.644812         2.007905
 H         2.782360        -0.978495        -1.444052
 H         3.226233         1.701435        -1.994706
 H         0.267875        -0.598436         1.311687
 H        -0.881860         0.214129         0.070307
 H        -0.243009        -1.225358        -0.280144
