19
Iteration:  1010
 C         1.261466         2.992753         0.184175
 C         2.051810         1.795242         0.005673
 C         3.014833         1.185546         1.131486
 O         3.704474         0.147165         0.378375
 C         2.854923        -0.006904        -0.756429
 C         2.435492         1.344249        -1.497606
 O         1.088336         0.903839        -1.696164
 C         1.288290         0.399709        -0.394455
 C        -0.010860        -0.140904         0.252551
 H         0.611179         3.074983         1.185816
 H         1.959470         3.866716         0.287880
 H         0.632643         3.077950        -0.683527
 H         3.777034         1.892235         1.645246
 H         2.478557         0.624380         1.848272
 H         3.218043        -1.035523        -1.405433
 H         3.064127         1.800807        -2.228940
 H        -0.016936        -0.125169         1.365676
 H        -0.760868         0.476377        -0.171593
 H        -0.312111        -1.121799        -0.046373
