19
Iteration:  4386
 C         1.249102         3.045383         0.337070
 C         1.983458         1.772886         0.059228
 C         3.084909         1.364159         0.977727
 O         3.439496         0.024280         0.489182
 C         2.765410        -0.021303        -0.685820
 C         2.495537         1.353485        -1.302045
 O         1.262550         0.962759        -1.845059
 C         1.302944         0.372316        -0.525475
 C         0.075928        -0.280375         0.149921
 H         0.661143         2.924161         1.322825
 H         1.861587         3.900296         0.353281
 H         0.714967         3.208683        -0.591590
 H         3.810252         2.120027         0.843112
 H         2.800640         1.202035         1.981420
 H         3.174710        -0.856681        -1.403722
 H         3.184452         1.860031        -2.022374
 H         0.266975        -0.807691         1.130995
 H        -0.635804         0.548287         0.278551
 H        -0.477911        -0.992086        -0.506260
