19
Iteration:  4339
 C         1.239595         3.111972         0.256589
 C         2.066229         1.829816        -0.011710
 C         3.010571         1.309074         1.096969
 O         3.430336         0.032763         0.489900
 C         2.657646        -0.068076        -0.764795
 C         2.558715         1.342351        -1.410426
 O         1.212238         1.026249        -1.790264
 C         1.300787         0.450450        -0.383874
 C         0.194533        -0.380847         0.112206
 H         1.011123         3.098260         1.302982
 H         1.800894         4.075314        -0.094513
 H         0.468080         3.091085        -0.501912
 H         4.014189         1.765652         1.273917
 H         2.338480         1.154284         2.001678
 H         2.849236        -1.013274        -1.185835
 H         3.290963         1.902827        -1.942110
 H         0.525374        -0.641618         1.122828
 H        -0.781649         0.115643         0.311072
 H        -0.055158        -1.442808        -0.405006
