19
Iteration:  4073
 C         1.095640         2.925458         0.310909
 C         2.083697         1.780712         0.017491
 C         3.156185         1.348148         1.011075
 O         3.527551         0.017672         0.469174
 C         2.717478        -0.065266        -0.708618
 C         2.576460         1.323145        -1.423033
 O         1.186129         0.976608        -1.810469
 C         1.293165         0.472195        -0.410628
 C         0.089440        -0.171454         0.158655
 H         0.572597         2.798862         1.261198
 H         1.629075         3.957713         0.394624
 H         0.351585         2.850147        -0.542193
 H         3.954724         2.057149         1.119221
 H         2.684268         1.329321         1.998462
 H         2.836845        -1.074536        -1.264384
 H         3.240613         1.828963        -2.055922
 H         0.153057        -0.611328         1.217660
 H        -0.583958         0.709619         0.170572
 H        -0.315182        -0.929881        -0.491999
