19
Iteration:  3376
 C         1.266487         3.001161         0.295864
 C         2.006290         1.733658         0.041052
 C         3.046392         1.346572         0.996531
 O         3.609281         0.109948         0.422983
 C         2.730764        -0.090485        -0.646124
 C         2.582665         1.317448        -1.358420
 O         1.127294         0.934432        -1.809383
 C         1.251537         0.377156        -0.424811
 C         0.066271        -0.182931         0.140361
 H         0.552794         3.123485         1.187245
 H         1.900445         3.822932         0.485388
 H         0.715120         3.172867        -0.752824
 H         3.855213         2.064546         1.156672
 H         2.718179         1.044285         1.945326
 H         3.195936        -0.968648        -1.183043
 H         3.085522         1.979245        -2.144755
 H         0.167388        -0.701762         1.085562
 H        -0.711911         0.580410         0.319959
 H        -0.583734        -0.681572        -0.632142
