19
Iteration:   335
 C         1.329660         3.088960         0.236407
 C         1.986148         1.766316         0.078292
 C         3.054559         1.248858         1.071977
 O         3.710767         0.147042         0.374738
 C         2.793884        -0.051943        -0.687913
 C         2.466725         1.380152        -1.401791
 O         1.132682         0.840387        -1.717741
 C         1.247428         0.451180        -0.325815
 C        -0.028027        -0.255106         0.043826
 H         0.818634         3.007107         1.249872
 H         2.041730         3.842935         0.305310
 H         0.471181         3.324908        -0.518866
 H         3.748434         1.948425         1.423848
 H         2.481264         0.821808         1.945375
 H         2.977036        -0.826430        -1.324219
 H         3.092710         1.860586        -2.177597
 H        -0.243256        -0.512139         1.121576
 H        -0.810715         0.448074        -0.327604
 H        -0.186574        -1.074950        -0.567961
