19
Iteration:   604
 C         1.276739         3.085827         0.236048
 C         2.014440         1.761121         0.112182
 C         3.037356         1.204930         1.092900
 O         3.697705         0.132400         0.286438
 C         2.748811        -0.059950        -0.751079
 C         2.517955         1.312992        -1.359563
 O         1.124883         0.964799        -1.746188
 C         1.227246         0.436510        -0.355433
 C         0.013172        -0.226871         0.163851
 H         0.714759         3.060498         1.165885
 H         2.020655         3.967941         0.241642
 H         0.538501         3.261582        -0.698974
 H         3.697515         1.984458         1.416914
 H         2.658265         0.678995         2.121997
 H         3.022711        -0.854419        -1.356482
 H         3.316972         1.587948        -2.119639
 H        -0.018318        -0.289658         1.223567
 H        -0.901174         0.353059        -0.143240
 H        -0.153641        -1.295782        -0.345470
