19
Iteration:  3763charge 0 multiplicity 1
 C         1.294980         3.055871         0.223254
 C         1.989088         1.780924         0.046858
 C         3.028967         1.177521         1.117628
 O         3.627758         0.115950         0.434163
 C         2.733137        -0.035354        -0.774374
 C         2.503036         1.381848        -1.379876
 O         1.201169         0.955081        -1.856689
 C         1.220437         0.432499        -0.395916
 C         0.024581        -0.293950         0.214284
 H         0.826888         3.374120         1.228741
 H         2.154843         3.770352         0.145210
 H         0.565519         3.351124        -0.558854
 H         3.798094         1.981435         1.419010
 H         2.363134         0.977902         2.048093
 H         3.003777        -0.963494        -1.364668
 H         3.272916         1.927582        -2.018385
 H         0.353313        -0.741182         1.107852
 H        -0.702672         0.511304         0.412235
 H        -0.345748        -1.137992        -0.466638
