19
Iteration:   610
 C         1.277237         3.089677         0.262464
 C         2.025046         1.767041         0.111119
 C         3.077766         1.198466         1.107123
 O         3.680944         0.110761         0.348646
 C         2.743928        -0.000157        -0.720995
 C         2.460956         1.278776        -1.400646
 O         1.114533         0.942961        -1.768999
 C         1.279000         0.429483        -0.361058
 C        -0.007401        -0.216052         0.114838
 H         0.649819         3.101255         1.172567
 H         1.941535         3.924243         0.239588
 H         0.674247         3.146799        -0.555508
 H         3.871819         2.004279         1.256711
 H         2.821569         0.821990         2.016347
 H         3.015473        -0.906976        -1.436848
 H         3.010037         1.808948        -2.171749
 H         0.102901        -0.396348         1.241722
 H        -0.833734         0.372719        -0.251325
 H        -0.175102        -1.121511        -0.320096
