19
Iteration:  2191charge 0 multiplicity 1
 C         1.255378         3.102499         0.255955
 C         2.058086         1.804603         0.063228
 C         3.187874         1.480909         0.964249
 O         3.433778         0.029393         0.520380
 C         2.627431        -0.097007        -0.667614
 C         2.475173         1.311807        -1.336509
 O         1.205606         0.909541        -1.932464
 C         1.236142         0.457179        -0.391400
 C         0.171697        -0.385060         0.178437
 H         0.694179         3.082553         1.244242
 H         1.959751         3.930168         0.278960
 H         0.545825         3.341977        -0.490740
 H         4.096462         2.064825         0.871582
 H         2.787926         1.519722         1.985326
 H         2.677470        -0.973140        -1.333606
 H         3.114270         1.929788        -1.916487
 H         0.676136        -0.810500         1.035245
 H        -0.777688         0.178071         0.444756
 H        -0.067998        -1.207624        -0.505066
