19
Iteration:  2938
 C         1.355002         3.073352         0.203413
 C         1.955578         1.751235         0.023212
 C         3.067673         1.275550         1.010327
 O         3.663541         0.163856         0.435162
 C         2.769517        -0.013698        -0.624074
 C         2.541016         1.303171        -1.347631
 O         1.129770         0.894748        -1.822307
 C         1.180580         0.420336        -0.472153
 C        -0.030325        -0.284246         0.222693
 H         0.702972         3.092636         1.197413
 H         2.126056         3.783365         0.319739
 H         0.645646         3.387322        -0.648938
 H         3.731737         2.090144         1.232763
 H         2.670007         1.021777         2.049329
 H         3.126589        -0.934491        -1.308527
 H         3.184072         2.052764        -1.932703
 H         0.255011        -0.632693         1.166713
 H        -0.875960         0.366039         0.059392
 H        -0.244773        -1.292342        -0.314365
