19
Iteration:   139charge 0 multiplicity 1
 C         1.131182         2.953975         0.264741
 C         1.944335         1.715430        -0.002599
 C         3.085350         1.313302         0.993335
 O         3.492431         0.073310         0.502790
 C         2.761189        -0.067445        -0.687832
 C         2.629037         1.357049        -1.365377
 O         1.253786         0.990079        -1.954196
 C         1.268129         0.438994        -0.462057
 C         0.109934        -0.213354         0.295714
 H         1.164448         3.134896         1.356682
 H         1.502902         3.812798        -0.233654
 H         0.029324         2.825499        -0.132987
 H         3.860153         2.130323         0.862470
 H         2.938375         1.383816         2.180859
 H         2.949320        -0.992292        -1.291045
 H         3.333240         1.988944        -1.918435
 H         0.159553        -0.339196         1.515075
 H        -0.798910         0.501313         0.239554
 H        -0.143286        -1.256886         0.022373
