19
Iteration:  3035
 C         1.255960         3.019163         0.233568
 C         2.022416         1.747732        -0.013909
 C         3.143328         1.341239         1.016608
 O         3.500671         0.024555         0.551345
 C         2.746509        -0.000546        -0.673294
 C         2.549259         1.347457        -1.403779
 O         1.158300         0.924011        -1.795854
 C         1.209832         0.450858        -0.476565
 C         0.091684        -0.235985         0.214212
 H         0.502379         3.053872         1.110363
 H         1.850354         3.886943         0.359724
 H         0.629636         3.158536        -0.639532
 H         4.002807         2.085196         0.895344
 H         2.682032         1.356031         2.058385
 H         3.059941        -0.810287        -1.445585
 H         3.104224         1.760539        -2.256441
 H         0.552389        -0.767281         1.014357
 H        -0.776808         0.387235         0.313238
 H        -0.297417        -1.148110        -0.435790
