19
Iteration:  4502
 C         1.247310         3.047160         0.325753
 C         2.032814         1.804962        -0.005451
 C         3.031197         1.318341         0.985943
 O         3.432625        -0.022391         0.611216
 C         2.696876        -0.083183        -0.755865
 C         2.546557         1.415082        -1.416816
 O         1.228640         1.020959        -1.863550
 C         1.253469         0.499429        -0.443220
 C         0.153532        -0.363525         0.164830
 H         0.951696         3.093382         1.351351
 H         1.827486         4.061594         0.116966
 H         0.431304         3.249495        -0.360696
 H         3.920467         2.020695         0.981077
 H         2.702764         1.101735         1.988443
 H         2.795026        -1.021296        -1.273718
 H         3.249124         1.986970        -1.991601
 H         0.660882        -0.618043         1.061576
 H        -0.865252         0.001836         0.181007
 H         0.281635        -1.330235        -0.459617
