19
Iteration:  4364
 C         1.202436         3.041788         0.316438
 C         2.002291         1.774351        -0.016960
 C         3.125119         1.331366         1.092566
 O         3.448203         0.006914         0.592093
 C         2.649116        -0.069205        -0.729113
 C         2.589623         1.391408        -1.402199
 O         1.186914         0.981591        -1.895356
 C         1.255837         0.523216        -0.518193
 C         0.165073        -0.334270         0.165405
 H         0.950695         3.030288         1.436277
 H         1.873233         3.834485         0.104141
 H         0.456845         3.251392        -0.411398
 H         3.967280         1.971945         0.910122
 H         2.841830         1.329307         2.117547
 H         2.955831        -1.055455        -1.265193
 H         3.340282         1.967660        -1.983962
 H         0.515777        -0.860095         1.043830
 H        -0.789601         0.123362         0.440752
 H        -0.072568        -1.129933        -0.617741
