19
Iteration:  2683charge 0 multiplicity 1
 C         1.259769         3.109830         0.207922
 C         2.016177         1.748672         0.055615
 C         2.991279         1.237590         1.049374
 O         3.662030         0.097963         0.425905
 C         2.844783        -0.022875        -0.757866
 C         2.515130         1.312648        -1.381816
 O         1.155466         0.904449        -1.832499
 C         1.213443         0.414436        -0.433990
 C         0.030369        -0.218726         0.275082
 H         0.667220         3.338923         1.173890
 H         2.044391         3.944880         0.143968
 H         0.568148         3.184391        -0.506604
 H         3.721717         1.925608         1.460446
 H         2.554447         0.899064         2.032671
 H         2.875145        -0.868766        -1.475523
 H         2.975615         1.908290        -2.116755
 H         0.280487        -0.447542         1.427991
 H        -0.869958         0.456919         0.118063
 H        -0.259972        -1.181117        -0.111148
