19
Iteration:  4942
 C         1.160220         2.984534         0.240656
 C         2.061603         1.725999         0.018769
 C         3.040110         1.319262         1.035181
 O         3.621093         0.026597         0.507474
 C         2.710895        -0.091451        -0.730030
 C         2.577872         1.340500        -1.384740
 O         1.134357         1.005740        -1.815572
 C         1.273326         0.507758        -0.447180
 C         0.110330        -0.175383         0.160268
 H         0.689667         2.695666         1.203887
 H         1.667523         3.952894         0.369316
 H         0.603896         2.839780        -0.649038
 H         3.876768         1.980864         1.284095
 H         2.340418         1.042909         1.907081
 H         2.731042        -0.987431        -1.328059
 H         3.312964         2.080794        -1.945900
 H         0.489855        -0.812618         1.089508
 H        -0.680458         0.478811         0.566023
 H        -0.245096        -0.939254        -0.466807
