19
Iteration:  3001charge 0 multiplicity 1
 C         1.109691         3.003536         0.239255
 C         2.046660         1.795442         0.037120
 C         3.102523         1.352356         0.956940
 O         3.471472         0.035383         0.505348
 C         2.653806        -0.041354        -0.693785
 C         2.583888         1.297727        -1.393351
 O         1.289334         1.031662        -1.882422
 C         1.268392         0.361341        -0.471412
 C         0.112234        -0.241032         0.325537
 H         0.582071         3.068780         1.267856
 H         1.730706         3.891212         0.065121
 H         0.405476         3.068986        -0.546380
 H         4.054090         2.009773         0.966110
 H         2.888673         1.260650         2.064170
 H         3.037648        -0.882094        -1.421470
 H         3.302451         1.606353        -2.170007
 H         0.428496        -0.695342         1.253981
 H        -0.594036         0.483803         0.720873
 H        -0.452877        -1.039189        -0.354811
