19
Iteration:   527
 C         1.220533         2.985510         0.406471
 C         2.044738         1.817833         0.008827
 C         3.214345         1.398889         0.942503
 O         3.385850        -0.047268         0.542432
 C         2.649123        -0.050452        -0.685034
 C         2.516234         1.350489        -1.458422
 O         1.206048         1.020820        -1.922533
 C         1.239413         0.495070        -0.436753
 C         0.175264        -0.326099         0.205224
 H         0.729593         2.873001         1.367374
 H         1.953254         3.857265         0.552957
 H         0.453579         3.216013        -0.430609
 H         4.136878         1.929308         0.784747
 H         2.919379         1.426343         2.074626
 H         2.710894        -0.959323        -1.268094
 H         3.183845         1.958009        -2.126356
 H         0.430475        -0.635170         1.214265
 H        -0.793510         0.164301         0.395941
 H         0.165304        -1.279428        -0.462976
