19
Iteration:   905
 C         1.313822         3.157643         0.218657
 C         2.002661         1.783206         0.088887
 C         3.070801         1.293070         1.021122
 O         3.561848         0.094966         0.395239
 C         2.668373        -0.040741        -0.714555
 C         2.512715         1.307929        -1.343699
 O         1.161040         0.971560        -1.869941
 C         1.255383         0.412166        -0.406115
 C         0.105703        -0.366986         0.239054
 H         0.714767         3.203784         1.159153
 H         2.132648         3.886252         0.198420
 H         0.647820         3.324019        -0.654711
 H         3.832005         1.952880         1.354690
 H         2.461599         0.992291         1.976482
 H         2.901290        -0.899226        -1.261765
 H         3.079971         1.763065        -2.166485
 H         0.593969        -1.079266         1.029641
 H        -0.427341         0.318026         0.964214
 H        -0.574921        -0.898380        -0.432417
