19
Iteration:   126charge 0 multiplicity 1
 C         1.055241         2.931455         0.277587
 C         2.005201         1.751512         0.055808
 C         3.153309         1.462183         0.932334
 O         3.386443        -0.015273         0.547963
 C         2.664290        -0.065087        -0.755710
 C         2.589024         1.299058        -1.350449
 O         1.331859         1.043336        -1.933031
 C         1.293124         0.420163        -0.431637
 C         0.166105        -0.212362         0.295219
 H         0.895196         3.174588         1.319107
 H         1.397358         3.825156        -0.212861
 H         0.007253         2.683999        -0.119432
 H         4.027945         2.001382         0.674701
 H         2.935962         1.428163         2.079611
 H         3.015703        -1.015301        -1.370009
 H         3.397623         1.751213        -2.059729
 H         0.663531        -0.218422         1.307008
 H        -0.800814         0.315279         0.209624
 H        -0.067456        -1.256271        -0.127955
