19
Iteration:  3127
 C         1.209742         3.101154         0.235684
 C         1.999892         1.778550         0.023668
 C         3.125883         1.258091         1.118510
 O         3.453275         0.041753         0.498100
 C         2.700579        -0.069204        -0.729760
 C         2.608674         1.368869        -1.443197
 O         1.143447         0.887458        -1.835066
 C         1.274309         0.520493        -0.446639
 C         0.179727        -0.243700         0.198430
 H         0.764800         3.193821         1.198888
 H         1.802683         4.016457         0.054601
 H         0.261238         3.072976        -0.437749
 H         4.012554         1.840112         1.038490
 H         2.897711         1.139409         2.210358
 H         2.926237        -1.036979        -1.121837
 H         3.059556         2.030232        -2.223905
 H         0.410344        -0.674200         1.214376
 H        -0.814875         0.249899         0.124499
 H         0.026279        -1.090122        -0.329287
