19
Iteration:  4910charge 0 multiplicity 1
 C         1.235550         3.103322         0.297071
 C         1.941960         1.729962         0.082735
 C         3.115156         1.349530         0.984458
 O         3.426573        -0.040722         0.579125
 C         2.772490        -0.020003        -0.801208
 C         2.521407         1.411152        -1.402984
 O         1.221420         0.978669        -1.896663
 C         1.263263         0.374688        -0.427786
 C         0.143145        -0.308055         0.179671
 H         0.774116         3.234984         1.297452
 H         1.896148         3.931483         0.152032
 H         0.388383         3.061846        -0.366658
 H         4.088399         1.880038         0.869086
 H         2.840345         1.324198         2.085007
 H         2.983650        -0.954454        -1.270622
 H         3.191106         2.221359        -1.921134
 H         0.492051        -0.578586         1.257281
 H        -0.659833         0.442236         0.232465
 H        -0.200550        -1.082451        -0.381734
