19
Iteration:  2804
 C         1.270422         3.008365         0.209645
 C         2.011632         1.753975         0.044550
 C         2.964000         1.347724         1.093797
 O         3.610072         0.136372         0.376192
 C         2.786353        -0.059461        -0.701800
 C         2.561518         1.269711        -1.405136
 O         1.095317         0.883180        -1.764433
 C         1.303547         0.422928        -0.429981
 C         0.096612        -0.144908         0.194607
 H         0.653002         3.063234         1.220730
 H         1.969629         3.868422         0.398616
 H         0.588466         3.079087        -0.551047
 H         3.775404         2.035920         1.251968
 H         2.455658         0.956423         1.996578
 H         3.173811        -1.038768        -1.199550
 H         3.037831         1.773348        -2.216395
 H         0.326309        -0.855154         1.049805
 H        -0.670780         0.524640         0.593213
 H        -0.439850        -0.718280        -0.585291
