19
Iteration:  2912
 C         1.301207         3.124037         0.259609
 C         1.966473         1.785469         0.111020
 C         3.095046         1.396593         1.025625
 O         3.530114         0.062902         0.424728
 C         2.691040        -0.044817        -0.673319
 C         2.499968         1.245053        -1.432940
 O         1.174782         0.891630        -1.831444
 C         1.292769         0.433079        -0.368004
 C         0.093732        -0.312975         0.137319
 H         0.581878         3.187404         1.173477
 H         2.093355         3.987490         0.345044
 H         0.723941         3.360788        -0.600107
 H         3.939129         2.195432         1.060679
 H         2.887021         1.258389         2.118582
 H         2.804048        -0.944425        -1.212165
 H         3.027859         1.942260        -2.037736
 H         0.188695        -0.554311         1.261940
 H        -0.817290         0.266678        -0.133004
 H         0.090333        -1.313656        -0.363867
