19
Iteration:  2153charge 0 multiplicity 1
 C         1.350787         3.060870         0.171302
 C         1.990996         1.781262         0.020884
 C         3.027596         1.423393         1.055800
 O         3.598533         0.098983         0.456182
 C         2.784256        -0.061591        -0.791371
 C         2.439644         1.339647        -1.338279
 O         1.124443         0.882433        -1.761679
 C         1.285336         0.391336        -0.346088
 C         0.058755        -0.281680         0.118349
 H         0.830070         3.107642         1.091657
 H         2.126842         3.851814         0.289748
 H         0.522565         3.091647        -0.629438
 H         3.868298         2.097382         1.411182
 H         2.506751         1.106231         2.017065
 H         3.110993        -1.070450        -1.159708
 H         3.162634         1.948839        -2.001712
 H         0.158810        -0.610047         1.211690
 H        -0.821678         0.313029         0.289474
 H        -0.199143        -1.196081        -0.503390
