19
Iteration:  1270
 C         1.358454         3.064423         0.240482
 C         2.001551         1.716188        -0.026173
 C         3.099859         1.367001         1.003211
 O         3.693042         0.168485         0.419204
 C         2.671284        -0.002644        -0.607630
 C         2.509025         1.322491        -1.312870
 O         1.103049         0.852720        -1.802594
 C         1.181254         0.436679        -0.401783
 C        -0.004106        -0.324293         0.099220
 H         1.028946         3.215025         1.292971
 H         2.124585         3.922225         0.146629
 H         0.516000         3.135106        -0.388338
 H         3.818189         2.159315         1.050021
 H         2.790023         1.098307         2.119596
 H         2.789867        -1.019333        -1.169243
 H         3.246734         1.935899        -1.865251
 H         0.075569        -0.438387         1.274556
 H        -0.859939         0.291314        -0.230118
 H         0.006088        -1.416490        -0.215445
