19
Iteration:  3041
 C         1.258704         3.092923         0.250724
 C         2.016055         1.783104        -0.002918
 C         3.154976         1.331619         1.036928
 O         3.481516         0.044753         0.496135
 C         2.753179         0.032688        -0.677738
 C         2.541353         1.322546        -1.431836
 O         1.155170         0.899277        -1.787112
 C         1.250170         0.411297        -0.418516
 C         0.076824        -0.309853         0.150414
 H         0.592241         2.932086         1.048043
 H         1.857865         4.079406         0.381378
 H         0.649956         3.185874        -0.716372
 H         4.044323         1.949918         1.150613
 H         2.651787         1.226126         1.969611
 H         2.962896        -0.886563        -1.195850
 H         3.156741         1.723602        -2.246401
 H         0.334323        -0.569610         1.274942
 H        -0.670141         0.520794         0.400702
 H        -0.301280        -1.060291        -0.476746
