19
Iteration:  2931charge 0 multiplicity 1
 C         1.349128         3.047902         0.221968
 C         1.947123         1.713248         0.014813
 C         3.070178         1.294385         1.012474
 O         3.696735         0.140198         0.455268
 C         2.753705        -0.065488        -0.633788
 C         2.470059         1.405532        -1.316715
 O         1.151107         0.876511        -1.853252
 C         1.162249         0.482715        -0.431013
 C         0.000284        -0.309385         0.167188
 H         0.775847         3.116795         1.034530
 H         2.163318         3.810781         0.278717
 H         0.782002         3.404898        -0.650425
 H         3.811930         2.110032         1.135891
 H         2.681441         1.155973         1.990868
 H         2.940020        -0.899731        -1.195622
 H         3.214571         1.772149        -2.007883
 H         0.206167        -0.454214         1.277449
 H        -0.969842         0.262964         0.226568
 H        -0.121125        -1.195000        -0.325311
