19
Iteration:  2529
 C         1.330723         3.154430         0.171490
 C         2.048877         1.719845         0.021353
 C         2.980174         1.241532         1.117883
 O         3.650018         0.136561         0.450236
 C         2.698716        -0.062635        -0.747516
 C         2.443693         1.370271        -1.395421
 O         1.115932         0.962839        -1.796695
 C         1.274100         0.324867        -0.407717
 C         0.112991        -0.303252         0.189991
 H         0.849248         3.292452         1.219415
 H         2.017983         4.160311         0.177198
 H         0.624686         3.198385        -0.628215
 H         3.846586         1.895360         1.212272
 H         2.421922         1.025560         2.096854
 H         3.066357        -0.972332        -1.198002
 H         3.029749         1.802323        -2.206562
 H         0.275708        -0.329293         1.343743
 H        -0.770580         0.387900         0.223299
 H        -0.204530        -1.212782        -0.281812
