19
Iteration:   713
 C         1.306578         3.068309         0.160406
 C         2.004286         1.673747         0.064158
 C         2.971788         1.203697         1.177514
 O         3.606093         0.053106         0.388538
 C         2.810438         0.013750        -0.801561
 C         2.416575         1.385861        -1.385912
 O         1.086829         1.011698        -1.754127
 C         1.301795         0.340315        -0.466721
 C         0.153285        -0.204677         0.250223
 H         0.678210         3.181492         0.979644
 H         2.049991         3.921642         0.191514
 H         0.605475         3.195474        -0.798572
 H         3.820921         1.837995         1.372278
 H         2.431010         0.923498         2.095207
 H         3.157827        -0.788229        -1.312461
 H         3.021048         2.017491        -2.109871
 H         0.366878        -0.787972         1.077692
 H        -0.228905         0.734150         0.669106
 H        -0.485454        -0.866821        -0.475225
