19
Iteration:  3310
 C         1.232270         2.982685         0.250839
 C         2.046056         1.739297        -0.006257
 C         3.049121         1.337539         1.030753
 O         3.433756         0.066127         0.458942
 C         2.708760        -0.074234        -0.705920
 C         2.649816         1.299356        -1.458173
 O         1.171218         1.055339        -1.811288
 C         1.324053         0.481410        -0.436661
 C         0.098881        -0.329665         0.292255
 H         0.709380         3.088138         1.282952
 H         1.929215         3.792410         0.234438
 H         0.389211         3.201529        -0.530823
 H         3.909169         2.008408         1.154308
 H         2.500586         1.256973         1.948256
 H         3.031283        -0.940194        -1.198012
 H         3.396455         1.899588        -2.042506
 H         0.327730        -0.560195         1.295294
 H        -0.778994         0.325407         0.154096
 H        -0.319461        -1.071126        -0.446250
