19
Iteration:  2802
 C         1.261304         3.028391         0.221725
 C         2.029987         1.742925         0.047409
 C         2.954357         1.348396         1.071903
 O         3.610930         0.138710         0.374830
 C         2.797777        -0.089710        -0.687594
 C         2.559018         1.280098        -1.413911
 O         1.104933         0.888509        -1.756703
 C         1.313749         0.417298        -0.444644
 C         0.076889        -0.147869         0.194387
 H         0.637371         3.077319         1.193307
 H         1.997958         3.930404         0.427017
 H         0.552075         3.070346        -0.580188
 H         3.824533         2.068370         1.242646
 H         2.470208         0.979061         1.996163
 H         3.071620        -0.990491        -1.142416
 H         3.004959         1.826578        -2.193406
 H         0.334141        -0.921595         1.025300
 H        -0.745259         0.494590         0.599349
 H        -0.432418        -0.743297        -0.514734
