19
Iteration:   322
 C         1.278975         3.095064         0.282423
 C         2.037214         1.764021         0.051051
 C         3.025304         1.182014         1.153833
 O         3.675827         0.176323         0.364971
 C         2.811114         0.053284        -0.740203
 C         2.434516         1.315220        -1.351690
 O         1.102607         0.800620        -1.773673
 C         1.347489         0.329687        -0.368172
 C        -0.024043        -0.138812         0.062358
 H         0.822838         3.392041         1.212338
 H         1.960259         3.870227         0.004711
 H         0.536628         3.165673        -0.581391
 H         3.854917         1.827164         1.607965
 H         2.484872         0.728904         1.952532
 H         3.082207        -0.908111        -1.276185
 H         2.938634         2.012543        -2.132434
 H        -0.099903        -0.388628         1.015680
 H        -0.703394         0.692277        -0.012332
 H        -0.171845        -1.052390        -0.507467
