19
Iteration:  1137charge 0 multiplicity 1
 C         1.307834         3.107176         0.186329
 C         1.955103         1.755826         0.108261
 C         3.053858         1.360200         0.994573
 O         3.646255         0.141160         0.400583
 C         2.791304        -0.115619        -0.696290
 C         2.500105         1.322546        -1.319432
 O         1.125319         0.910303        -1.768464
 C         1.266267         0.356460        -0.398389
 C         0.016940        -0.286367         0.149674
 H         0.934801         3.296883         1.152032
 H         2.038971         3.903824        -0.109241
 H         0.467641         3.243248        -0.571954
 H         3.864733         2.036778         1.189268
 H         2.609334         1.160537         2.095017
 H         3.052306        -0.977531        -1.237028
 H         3.025189         1.952444        -2.152946
 H         0.323427        -1.053326         0.906916
 H        -0.527986         0.503715         0.812966
 H        -0.746035        -0.715090        -0.676515
