19
Iteration:   210
 C         1.373057         3.156165         0.211811
 C         1.962220         1.748518         0.104178
 C         3.044502         1.368766         1.067748
 O         3.615702         0.171513         0.411202
 C         2.741583        -0.056901        -0.687549
 C         2.543826         1.277022        -1.296498
 O         1.123850         0.930236        -1.829587
 C         1.149558         0.389266        -0.451119
 C         0.037284        -0.416874         0.140045
 H         0.482487         3.140006         0.838361
 H         2.097949         3.951557         0.623155
 H         1.083712         3.470369        -0.754362
 H         3.866389         2.178506         1.000814
 H         2.812695         1.290579         2.102752
 H         3.093277        -1.012633        -1.242378
 H         3.251683         1.889673        -1.963258
 H         0.371845        -0.797305         1.052570
 H        -0.856187         0.201897         0.317471
 H        -0.183943        -1.351146        -0.526272
