19
Iteration:  3384
 C         1.255021         2.988842         0.287767
 C         1.979482         1.703022         0.029063
 C         3.162390         1.342901         1.030815
 O         3.597017         0.127245         0.514204
 C         2.758415        -0.090663        -0.697260
 C         2.567566         1.286950        -1.394311
 O         1.093080         0.974337        -1.828330
 C         1.278544         0.464124        -0.467615
 C         0.021890        -0.212661         0.148716
 H         0.545245         2.929339         1.124041
 H         1.992736         3.834229         0.315185
 H         0.573240         3.183595        -0.534301
 H         3.952136         2.152927         1.179661
 H         2.671086         1.046934         2.022555
 H         2.729669        -1.063013        -1.101319
 H         3.138092         1.872910        -2.125178
 H         0.300761        -0.768380         1.003921
 H        -0.719685         0.558211         0.390350
 H        -0.419280        -0.979848        -0.676428
