19
Iteration:  4739
 C         1.239348         3.055915         0.285976
 C         1.925028         1.691182         0.042133
 C         3.075556         1.317038         0.989319
 O         3.528198         0.072482         0.494353
 C         2.701814        -0.067750        -0.749951
 C         2.577050         1.387458        -1.301322
 O         1.277768         0.960035        -1.841369
 C         1.189887         0.439755        -0.451435
 C         0.092613        -0.282219         0.142635
 H         0.773266         2.936407         1.294235
 H         2.040678         3.755975         0.251609
 H         0.552943         3.365469        -0.617870
 H         3.857805         2.096123         1.007827
 H         2.712155         1.420928         2.063238
 H         2.931755        -0.938680        -1.307606
 H         3.361244         1.931033        -1.887652
 H         0.461386        -0.749538         1.101707
 H        -0.721061         0.427882         0.377092
 H        -0.399890        -1.083842        -0.402465
