19
Iteration:  1623charge 0 multiplicity 1
 C         1.224968         3.078654         0.178989
 C         2.003345         1.763508         0.023523
 C         3.138358         1.381200         1.015927
 O         3.365673        -0.011814         0.576065
 C         2.760937        -0.021042        -0.706538
 C         2.520783         1.388582        -1.434814
 O         1.187792         0.940206        -1.785042
 C         1.307837         0.424547        -0.460233
 C         0.163575        -0.291636         0.213223
 H         0.934002         3.188416         1.291916
 H         1.713486         3.944661        -0.272354
 H         0.307502         3.009992        -0.449490
 H         4.017989         1.946216         0.766856
 H         2.927598         1.414373         2.156877
 H         3.068709        -0.970110        -1.256723
 H         3.104291         1.802479        -2.155581
 H         0.545870        -0.881186         0.983663
 H        -0.674555         0.340148         0.543458
 H        -0.161942        -1.154302        -0.402988
