19
Iteration:  4950charge 0 multiplicity 1
 C         1.170898         2.942177         0.233717
 C         2.031186         1.753566         0.008946
 C         3.032110         1.286873         1.038197
 O         3.651349         0.046539         0.441085
 C         2.745542        -0.106847        -0.629433
 C         2.569627         1.286361        -1.368920
 O         1.138285         1.061330        -1.850134
 C         1.307921         0.534009        -0.440641
 C         0.097352        -0.189438         0.180541
 H         0.494265         2.711748         1.102091
 H         1.690752         3.985208         0.338230
 H         0.499547         3.112406        -0.619897
 H         3.647254         2.062375         1.398489
 H         2.526385         0.905025         1.957713
 H         2.668541        -1.042812        -1.191912
 H         3.169535         1.888244        -1.957588
 H         0.451846        -0.748121         1.017997
 H        -0.693729         0.484525         0.564248
 H        -0.452109        -0.979686        -0.519762
