19
Iteration:  4947charge 0 multiplicity 1
 C         1.166934         2.966966         0.245260
 C         2.039838         1.728502         0.013122
 C         3.030411         1.302015         1.031365
 O         3.648566         0.035899         0.471098
 C         2.736216        -0.107327        -0.659299
 C         2.571683         1.301707        -1.372946
 O         1.127160         1.043330        -1.840624
 C         1.312326         0.541912        -0.448305
 C         0.100504        -0.182819         0.172860
 H         0.614965         2.653169         1.130874
 H         1.644808         3.951612         0.327694
 H         0.541108         2.996038        -0.716000
 H         3.748101         2.090928         1.400134
 H         2.453723         0.961449         1.863204
 H         2.608599        -1.030574        -1.280505
 H         3.211266         1.988037        -1.892338
 H         0.430380        -0.756703         0.994539
 H        -0.678293         0.457933         0.588811
 H        -0.390626        -1.005710        -0.473351
