19
Iteration:   442charge 0 multiplicity 1
 C         1.245841         2.998146         0.191782
 C         1.971956         1.671269         0.000564
 C         2.920759         1.157574         1.045807
 O         3.700455         0.170122         0.357943
 C         2.732352        -0.030790        -0.728474
 C         2.559371         1.317980        -1.316223
 O         1.195423         1.050132        -1.822281
 C         1.266898         0.406502        -0.442112
 C         0.067084        -0.205001         0.330758
 H         0.877186         3.028291         1.188713
 H         1.929195         3.795872         0.143462
 H         0.423020         3.260766        -0.550989
 H         3.715720         1.970884         1.407224
 H         2.478841         0.810492         1.917760
 H         2.828320        -0.910456        -1.237010
 H         3.272862         1.989673        -1.857662
 H         0.212958        -0.958640         1.029717
 H        -0.560272         0.612030         0.765754
 H        -0.593428        -0.727702        -0.551049
