19
Iteration:  3898
 C         1.177823         3.001387         0.296654
 C         1.964123         1.723932         0.058361
 C         3.026445         1.206443         1.187905
 O         3.675921         0.153467         0.384326
 C         2.793400        -0.101900        -0.762354
 C         2.529267         1.249575        -1.463282
 O         1.178071         0.942330        -1.821076
 C         1.307979         0.496124        -0.424918
 C         0.033232        -0.055666         0.166179
 H         0.740157         2.984821         1.235801
 H         1.877775         3.842564        -0.095722
 H         0.374713         2.880521        -0.416594
 H         3.647847         2.062164         1.585841
 H         2.360710         0.773754         1.989144
 H         3.019478        -1.074585        -1.238158
 H         3.216513         1.874811        -1.989545
 H         0.341742        -0.549494         1.108163
 H        -0.839804         0.534863         0.355704
 H        -0.300277        -0.916115        -0.435923
