19
Iteration:  1593charge 0 multiplicity 1
 C         1.305736         3.096054         0.158832
 C         1.990483         1.753279         0.057416
 C         2.980580         1.306216         1.108830
 O         3.646422         0.165556         0.384767
 C         2.766196        -0.053316        -0.688165
 C         2.510821         1.280312        -1.411928
 O         1.183681         0.897171        -1.794106
 C         1.243815         0.420382        -0.362014
 C         0.054587        -0.227584         0.232475
 H         0.637778         3.220249         0.986695
 H         1.957360         3.946775         0.148599
 H         0.614322         2.956027        -0.815613
 H         3.640972         2.091859         1.426153
 H         2.408254         0.967147         2.021946
 H         2.938007        -1.059421        -1.270578
 H         3.286369         1.667999        -2.163683
 H         0.280380        -1.112866         0.856566
 H        -0.758756         0.348931         0.686972
 H        -0.424324        -0.749190        -0.653158
