19
Iteration:  3884charge 0 multiplicity 1
 C         1.209803         2.957119         0.259660
 C         2.025153         1.684708         0.101095
 C         2.905170         1.250493         1.109930
 O         3.651428         0.160602         0.366337
 C         2.785132        -0.064864        -0.724831
 C         2.580019         1.322922        -1.368688
 O         1.164515         0.945485        -1.832992
 C         1.293996         0.349227        -0.471524
 C         0.064796        -0.089421         0.207408
 H         0.859303         3.281643         1.349360
 H         1.814330         3.871748         0.110700
 H         0.369395         3.110840        -0.358547
 H         3.712312         1.869302         1.347352
 H         2.564788         0.842568         2.053128
 H         3.044026        -0.891804        -1.310868
 H         3.098366         1.876403        -2.225160
 H         0.138514        -0.407875         1.174799
 H        -0.397880         0.865736         0.193608
 H        -0.539257        -0.861272        -0.410464
