19
Iteration:  3812charge 0 multiplicity 1
 C         1.372981         3.038536         0.278372
 C         2.026780         1.823102         0.012562
 C         3.115753         1.382050         0.963407
 O         3.441554        -0.006834         0.572251
 C         2.713163        -0.010554        -0.650966
 C         2.529371         1.361417        -1.469078
 O         1.129411         1.071500        -1.783263
 C         1.213065         0.453108        -0.435280
 C         0.119815        -0.454306         0.127268
 H         0.591826         2.803133         0.960927
 H         1.823119         3.991980         0.698430
 H         0.831132         3.266415        -0.674272
 H         4.049646         2.011159         0.849234
 H         2.933928         1.262442         2.047098
 H         2.785644        -0.989674        -1.164910
 H         3.235793         1.746196        -2.159008
 H         0.346179        -0.889355         1.190417
 H        -0.818970         0.144787         0.089005
 H         0.070945        -1.314952        -0.553807
