19
Iteration:  1105
 C         1.231202         3.034872         0.258816
 C         2.089153         1.845439         0.101780
 C         3.308210         1.457851         0.932173
 O         3.414930         0.076481         0.523632
 C         2.674657        -0.089149        -0.683572
 C         2.475426         1.283621        -1.352289
 O         1.124547         0.926035        -1.871674
 C         1.258160         0.505829        -0.310907
 C         0.111560        -0.375260         0.095716
 H         0.855967         3.126341         1.223148
 H         1.933600         3.909110         0.260749
 H         0.406116         3.023801        -0.492192
 H         4.103512         2.145200         0.689941
 H         3.075434         1.452785         2.048749
 H         2.828647        -1.027375        -1.191234
 H         3.139506         1.664932        -2.235725
 H         0.423564        -1.230801         0.741587
 H        -0.753824         0.150537         0.611507
 H        -0.347928        -1.028204        -0.765403
