19
Iteration:   609charge 0 multiplicity 1
 C         1.277754         3.092609         0.255316
 C         2.024484         1.768607         0.112430
 C         3.068671         1.197126         1.105513
 O         3.684775         0.113959         0.338257
 C         2.744219        -0.008424        -0.726168
 C         2.469198         1.282323        -1.394486
 O         1.115920         0.946542        -1.765560
 C         1.271447         0.430322        -0.358564
 C        -0.004922        -0.216825         0.122183
 H         0.649980         3.087922         1.187493
 H         1.935149         3.908635         0.233535
 H         0.670296         3.165392        -0.561487
 H         3.845068         2.016285         1.282559
 H         2.808426         0.789721         2.041771
 H         3.024977        -0.892456        -1.429811
 H         3.060211         1.760057        -2.165031
 H         0.094382        -0.382246         1.245431
 H        -0.842844         0.357312        -0.246292
 H        -0.182214        -1.144991        -0.326723
