19
Iteration:  3167
 C         1.192829         2.982134         0.217463
 C         1.981520         1.672452         0.013543
 C         3.088078         1.363925         0.991987
 O         3.440111         0.049168         0.500062
 C         2.720049        -0.139158        -0.665468
 C         2.623540         1.378206        -1.443448
 O         1.193055         1.017908        -1.822378
 C         1.316582         0.448742        -0.487908
 C         0.111500        -0.179443         0.292455
 H         0.605999         2.764358         1.203770
 H         1.811986         3.825981         0.389815
 H         0.424965         3.136678        -0.547665
 H         3.922340         2.138541         1.033777
 H         2.782387         1.168275         2.076631
 H         3.035863        -0.956833        -1.211263
 H         3.371937         1.903227        -2.023706
 H         0.579843        -0.707149         1.084140
 H        -0.766125         0.406331         0.565729
 H        -0.230091        -0.893162        -0.621654
