19
Iteration:  1758charge 0 multiplicity 1
 C         1.189135         2.984105         0.198563
 C         2.032909         1.780437         0.005007
 C         3.095855         1.370379         1.033965
 O         3.533994         0.082166         0.486350
 C         2.733815        -0.049417        -0.678572
 C         2.538079         1.297080        -1.381911
 O         1.131285         0.896206        -1.823067
 C         1.317354         0.417009        -0.390599
 C         0.133218        -0.205288         0.199862
 H         0.549026         2.905064         1.061284
 H         1.783440         3.919818         0.481651
 H         0.516131         3.230735        -0.776343
 H         3.903823         2.084235         1.033458
 H         2.638093         1.211603         2.126421
 H         3.031522        -0.870420        -1.267063
 H         3.199322         1.797168        -2.130858
 H         0.100373        -0.746645         1.185994
 H        -0.476249         0.697028         0.215446
 H        -0.290811        -0.838024        -0.558462
