19
Iteration:  4524
 C         1.294655         3.031509         0.296493
 C         2.062384         1.829894         0.043302
 C         3.042451         1.321939         1.116573
 O         3.472072         0.078617         0.479172
 C         2.639151        -0.017258        -0.637367
 C         2.568850         1.293209        -1.356614
 O         1.144993         1.011346        -1.861213
 C         1.244769         0.442934        -0.493547
 C         0.168751        -0.356006         0.080848
 H         0.832349         3.153281         1.248892
 H         1.904928         4.088905         0.230415
 H         0.554407         3.305543        -0.475992
 H         3.982716         1.914872         1.056272
 H         2.711224         0.982544         2.078078
 H         2.946287        -0.844462        -1.250848
 H         3.194999         1.637286        -2.151707
 H         0.552875        -0.862491         0.958098
 H        -0.771842         0.168040         0.188301
 H         0.042668        -1.351327        -0.545669
