19
Iteration:  2919
 C         1.323636         3.114119         0.261680
 C         1.960560         1.753398         0.108013
 C         3.071959         1.418776         1.048288
 O         3.612762         0.064626         0.436965
 C         2.686975        -0.055598        -0.687897
 C         2.444040         1.289610        -1.409649
 O         1.206146         0.884910        -1.854077
 C         1.231212         0.432975        -0.343805
 C         0.075295        -0.284025         0.122804
 H         0.707072         3.203909         1.043575
 H         2.128594         3.831506         0.406992
 H         0.713360         3.232706        -0.684547
 H         3.885395         2.113831         0.951382
 H         2.762588         1.182707         2.036971
 H         2.746372        -0.999851        -1.188778
 H         3.017726         1.961885        -2.103414
 H         0.340555        -0.513760         1.195364
 H        -0.927262         0.171061        -0.051541
 H         0.081225        -1.228820        -0.306238
