19
Iteration:  3888charge 0 multiplicity 1
 C         1.193601         2.963605         0.298774
 C         2.014246         1.701495         0.101906
 C         2.897391         1.252018         1.146435
 O         3.668856         0.171991         0.364189
 C         2.786565        -0.109261        -0.736413
 C         2.588934         1.292828        -1.411718
 O         1.157728         0.947758        -1.836179
 C         1.293650         0.372156        -0.464032
 C         0.065090        -0.072736         0.194557
 H         0.891018         3.286328         1.207269
 H         1.842726         3.909805         0.074266
 H         0.381795         2.996177        -0.471976
 H         3.795985         1.917672         1.408121
 H         2.554407         0.796853         2.126196
 H         3.031717        -0.972370        -1.415341
 H         3.048816         1.928697        -2.126371
 H         0.232593        -0.461569         1.262437
 H        -0.582142         0.844118         0.204055
 H        -0.408880        -0.785165        -0.456182
