19
Iteration:  4889
 C         1.314787         3.064155         0.286820
 C         1.953474         1.774330         0.037261
 C         3.070073         1.365197         0.983665
 O         3.473956         0.047349         0.482847
 C         2.691388        -0.044245        -0.594832
 C         2.555613         1.351333        -1.320508
 O         1.204630         0.985928        -1.857385
 C         1.170300         0.472081        -0.507524
 C         0.149356        -0.370989         0.106320
 H         1.046250         3.040081         1.371841
 H         2.070028         3.775419         0.306101
 H         0.416002         3.141941        -0.349493
 H         4.050053         1.983708         0.854176
 H         2.833965         1.107521         2.021532
 H         2.835030        -0.854524        -1.285639
 H         3.373356         1.867811        -2.038723
 H         0.540628        -0.525821         1.210811
 H        -0.866216         0.053332         0.197935
 H         0.057472        -1.279642        -0.374890
