19
Iteration:  3870charge 0 multiplicity 1
 C         1.245650         2.994962         0.255170
 C         1.935078         1.721850        -0.016222
 C         3.063227         1.236000         1.050457
 O         3.583993         0.085743         0.444316
 C         2.811502         0.009771        -0.742688
 C         2.505773         1.398006        -1.344981
 O         1.217090         0.919300        -1.813195
 C         1.295832         0.351744        -0.448655
 C         0.010113        -0.130813         0.202569
 H         0.929642         2.864825         1.371976
 H         1.913923         3.781403         0.116784
 H         0.333868         3.046410        -0.463194
 H         3.778804         2.019117         1.356086
 H         2.482287         0.946137         1.904650
 H         3.108214        -0.867830        -1.422377
 H         3.285723         1.986101        -1.898030
 H         0.348177        -0.473908         1.259771
 H        -0.761438         0.707457         0.322426
 H        -0.556421        -0.890145        -0.300619
