19
Iteration:  3265charge 0 multiplicity 1
 C         1.281027         3.131506         0.221936
 C         1.957971         1.793082         0.071814
 C         3.065524         1.293148         1.004512
 O         3.427765        -0.018000         0.488210
 C         2.739226        -0.013016        -0.735708
 C         2.581190         1.392282        -1.349605
 O         1.193245         0.925316        -1.824848
 C         1.306421         0.434276        -0.373010
 C         0.110031        -0.309155         0.187336
 H         0.782489         3.231960         1.256372
 H         1.969363         3.987624         0.085233
 H         0.424019         3.110318        -0.497123
 H         3.851198         2.045295         0.735382
 H         3.000502         1.187914         2.028210
 H         2.917027        -0.899771        -1.187850
 H         3.097256         1.892199        -2.153541
 H         0.335862        -0.531171         1.179539
 H        -0.795636         0.193224        -0.043176
 H         0.063081        -1.222197        -0.520819
