19
Iteration:  4359
 C         1.216205         3.033690         0.314462
 C         2.014464         1.793746        -0.031371
 C         3.112502         1.312641         1.077113
 O         3.435054        -0.017309         0.583970
 C         2.667771        -0.051894        -0.693483
 C         2.565658         1.366710        -1.407853
 O         1.192000         1.013598        -1.912043
 C         1.293726         0.565936        -0.485199
 C         0.157268        -0.377573         0.209231
 H         0.948737         3.065296         1.326989
 H         1.943632         3.916332         0.073661
 H         0.338860         3.124144        -0.406452
 H         3.873129         2.147823         0.867846
 H         2.679956         1.191754         2.144209
 H         2.918123        -0.886463        -1.248353
 H         3.252757         1.835084        -2.110926
 H         0.553162        -0.953495         1.078819
 H        -0.826796         0.153701         0.245652
 H         0.032062        -1.071318        -0.696407
