19
Iteration:   734
 C         1.325681         3.061577         0.120765
 C         1.956365         1.658957         0.118734
 C         2.971243         1.124733         1.104564
 O         3.711443         0.170257         0.296078
 C         2.728883        -0.004801        -0.760500
 C         2.563244         1.394640        -1.291523
 O         1.129139         0.988795        -1.786962
 C         1.204340         0.449128        -0.377313
 C         0.013391        -0.251429         0.276668
 H         0.689534         3.327632         0.838414
 H         2.204688         3.758579         0.124105
 H         0.800987         3.079152        -0.928595
 H         3.782520         1.792095         1.456245
 H         2.477977         0.677348         1.925666
 H         2.981365        -0.817578        -1.333269
 H         3.115073         2.141493        -1.957040
 H         0.394906        -0.759862         1.097176
 H        -0.814842         0.440415         0.565564
 H        -0.156844        -1.192257        -0.413320
