19
Iteration:   633charge 0 multiplicity 1
 C         1.271230         2.983213         0.358747
 C         2.035821         1.755733         0.017416
 C         3.198082         1.408155         0.939405
 O         3.501380        -0.004568         0.504941
 C         2.737300        -0.081642        -0.692127
 C         2.446804         1.486223        -1.373351
 O         1.116014         0.878465        -1.782427
 C         1.313315         0.415366        -0.414427
 C         0.034121        -0.216336         0.087865
 H         0.843288         2.848121         1.335719
 H         2.022489         3.779371         0.425778
 H         0.555708         3.245759        -0.349974
 H         4.087632         2.120308         0.807904
 H         2.997340         1.350365         1.934501
 H         3.074469        -1.046086        -1.316736
 H         3.051914         1.997554        -2.122832
 H         0.153348        -0.647569         1.134632
 H        -0.762429         0.494336        -0.103563
 H        -0.265002        -0.956975        -0.565914
