19
Iteration:  3617charge 0 multiplicity 1
 C         1.386540         3.121768         0.213059
 C         1.922076         1.753591         0.055349
 C         2.995290         1.257995         1.116401
 O         3.535686         0.090235         0.365455
 C         2.767958         0.014970        -0.718215
 C         2.538051         1.386095        -1.401745
 O         1.189412         0.944200        -1.796295
 C         1.241182         0.376682        -0.432505
 C         0.062040        -0.352660         0.222098
 H         0.832865         3.437130         1.116242
 H         2.291856         3.633081         0.094961
 H         0.696845         3.402354        -0.690007
 H         3.794944         1.978292         1.440012
 H         2.326678         0.851755         1.914116
 H         3.009893        -0.758406        -1.397471
 H         3.294504         1.996247        -1.861913
 H         0.379165        -0.688505         1.295608
 H        -0.777108         0.306871         0.366150
 H        -0.328447        -1.230797        -0.223911
