19
Iteration:  4072charge 0 multiplicity 1
 C         1.092129         2.933245         0.310198
 C         2.089669         1.775701         0.017329
 C         3.151780         1.336908         1.002271
 O         3.534866         0.020792         0.474661
 C         2.716256        -0.057668        -0.705418
 C         2.577739         1.328302        -1.420950
 O         1.183910         0.976226        -1.813093
 C         1.290320         0.461614        -0.411663
 C         0.088182        -0.165366         0.164573
 H         0.554390         2.805359         1.270598
 H         1.613781         3.920122         0.357320
 H         0.381589         2.849781        -0.523803
 H         3.926941         2.056965         1.122568
 H         2.701224         1.293401         1.998322
 H         2.807622        -1.072880        -1.246014
 H         3.252490         1.853190        -2.073093
 H         0.165792        -0.598766         1.208532
 H        -0.572237         0.709034         0.169628
 H        -0.317492        -0.941235        -0.528084
