19
Iteration:   762charge 0 multiplicity 1
 C         1.294333         3.133880         0.294213
 C         2.043360         1.783978         0.071085
 C         3.090586         1.286058         1.014409
 O         3.622474         0.081799         0.401560
 C         2.665989        -0.061932        -0.686577
 C         2.511195         1.304342        -1.399766
 O         1.102472         0.981655        -1.816186
 C         1.268896         0.418784        -0.373012
 C         0.065436        -0.319047         0.116922
 H         0.652026         3.169790         1.322397
 H         2.010082         3.952774         0.333906
 H         0.632164         3.238430        -0.501232
 H         3.991126         1.883916         1.282780
 H         2.529164         0.967671         1.995090
 H         2.910702        -1.047818        -1.256044
 H         3.013750         1.868664        -2.146108
 H         0.152468        -0.458873         1.276762
 H        -0.814437         0.286529         0.002113
 H         0.128915        -1.246207        -0.308685
