19
Iteration:  2634charge 0 multiplicity 1
 C         1.134265         3.078123         0.290291
 C         2.013566         1.774218         0.054553
 C         3.158871         1.352012         0.936413
 O         3.574220         0.023014         0.446448
 C         2.750624        -0.103649        -0.637913
 C         2.579794         1.288215        -1.451723
 O         1.184974         0.928430        -1.806641
 C         1.255024         0.478206        -0.368130
 C         0.023936        -0.199791         0.171913
 H         0.576466         2.849113         1.196567
 H         1.677735         3.989385         0.522908
 H         0.209036         3.232669        -0.484347
 H         4.012286         2.084726         0.973547
 H         2.924130         1.302861         1.988382
 H         3.084418        -0.953653        -1.246443
 H         3.246184         1.708779        -2.291731
 H         0.401473        -0.673714         1.026306
 H        -0.793700         0.493179         0.385092
 H        -0.393100        -1.085581        -0.434397
