19
Iteration:  1121charge 0 multiplicity 1
 C         1.273583         3.103968         0.217547
 C         1.973818         1.739896         0.003481
 C         3.177547         1.408354         0.942337
 O         3.611557         0.067180         0.465783
 C         2.674136        -0.021653        -0.609116
 C         2.513876         1.316593        -1.359009
 O         1.183131         0.952225        -1.768019
 C         1.199686         0.419998        -0.375337
 C         0.005694        -0.386037         0.147957
 H         0.822804         3.152267         1.288466
 H         1.903577         3.948501        -0.036738
 H         0.426704         3.171979        -0.476446
 H         4.089817         2.096134         0.681010
 H         3.036282         1.334386         2.001526
 H         2.869352        -1.008749        -1.235886
 H         3.199510         1.875799        -1.903284
 H         0.394957        -1.183070         0.771190
 H        -0.727116         0.198873         0.682048
 H        -0.469706        -0.689759        -0.727762
