19
Iteration:  4865
 C         1.296177         3.154718         0.295931
 C         2.095674         1.842357         0.048936
 C         3.001795         1.313157         1.099871
 O         3.550619         0.107381         0.482496
 C         2.697480        -0.101264        -0.699289
 C         2.505233         1.310724        -1.462971
 O         1.141686         0.978859        -1.833360
 C         1.305620         0.432407        -0.362369
 C         0.085910        -0.399507         0.101429
 H         0.785528         3.180535         1.265176
 H         2.105412         3.853035         0.429949
 H         0.627678         3.252688        -0.481822
 H         3.898309         2.010158         1.197971
 H         2.539238         1.009487         2.102848
 H         2.843687        -0.889735        -1.402564
 H         3.143195         1.661154        -2.350010
 H         0.003686        -0.799981         1.160590
 H        -0.860726         0.099225        -0.155158
 H         0.064980        -1.201156        -0.590578
