19
Iteration:   458charge 0 multiplicity 1
 C         1.248419         3.041525         0.225526
 C         1.993104         1.732514         0.130739
 C         3.032565         1.229765         1.143077
 O         3.688361         0.139644         0.311644
 C         2.834048        -0.047750        -0.746737
 C         2.482051         1.356817        -1.365213
 O         1.150717         0.901100        -1.782242
 C         1.250708         0.380237        -0.409472
 C        -0.033179        -0.141448         0.140254
 H         0.676210         3.283799         1.180939
 H         2.048293         3.866243         0.082692
 H         0.606374         2.992147        -0.618576
 H         3.655149         1.961955         1.574877
 H         2.505763         0.677336         2.043180
 H         3.165102        -0.934482        -1.457012
 H         3.024080         1.925304        -2.101818
 H         0.260499        -0.903456         0.968486
 H        -0.369894         0.594063         0.847045
 H        -0.603411        -0.554233        -0.594376
