19
Iteration:  3946
 C         1.257383         3.043106         0.276753
 C         1.909547         1.748966         0.062119
 C         3.177861         1.310400         1.005702
 O         3.417689         0.031730         0.562442
 C         2.772201         0.000435        -0.682797
 C         2.513210         1.310485        -1.389058
 O         1.160341         1.014249        -1.824649
 C         1.278171         0.444339        -0.470436
 C         0.151702        -0.316611         0.131329
 H         0.567134         2.986083         1.059349
 H         2.097204         3.638863         0.413142
 H         0.778101         3.325498        -0.692714
 H         3.992620         1.975958         0.615085
 H         3.127868         1.347044         2.116625
 H         2.994686        -0.826918        -1.371862
 H         2.990226         1.926657        -2.165974
 H         0.433527        -0.676627         1.171006
 H        -0.730446         0.402967         0.182396
 H        -0.146176        -1.148358        -0.510214
