19
Iteration:    98charge 0 multiplicity 1
 C         1.116188         2.962562         0.186562
 C         2.091075         1.823193        -0.012121
 C         3.137911         1.355326         1.008165
 O         3.393539        -0.017642         0.652804
 C         2.701384        -0.076922        -0.735872
 C         2.610805         1.418204        -1.435383
 O         1.122105         0.935689        -1.839335
 C         1.322281         0.522685        -0.405057
 C         0.214285        -0.262600         0.196274
 H         0.719590         2.766353         1.225835
 H         1.511655         4.000731         0.177455
 H         0.253759         2.945028        -0.518937
 H         4.100097         1.980006         0.766372
 H         3.004002         1.486734         2.064838
 H         3.026637        -0.908985        -1.244368
 H         3.102568         1.884444        -2.205760
 H         0.618303        -0.784988         1.139832
 H        -0.789044         0.196395         0.258092
 H        -0.047556        -0.982876        -0.486214
