19
Iteration:  4648
 C         1.234567         3.011513         0.310219
 C         1.979228         1.727114         0.029147
 C         3.049111         1.345199         0.978717
 O         3.453579        -0.055552         0.504071
 C         2.785289        -0.020024        -0.711682
 C         2.545682         1.381811        -1.302228
 O         1.220508         0.999645        -1.895920
 C         1.291474         0.476573        -0.509770
 C         0.114972        -0.294004         0.195379
 H         0.587323         3.067589         1.267925
 H         1.805056         3.989393         0.142120
 H         0.417598         3.233879        -0.415225
 H         3.947158         2.020390         0.998948
 H         2.748141         1.378794         1.995517
 H         3.092010        -0.956160        -1.305975
 H         3.282467         2.085953        -1.818097
 H         0.467102        -0.371397         1.279667
 H        -0.811756         0.314739         0.252059
 H        -0.243094        -1.232165        -0.191582
