19
Iteration:  3434charge 0 multiplicity 1
 C         1.259932         3.100315         0.205884
 C         1.966186         1.773800         0.036933
 C         3.120647         1.313263         1.067444
 O         3.420110        -0.066214         0.530738
 C         2.697668        -0.018866        -0.711660
 C         2.515249         1.377209        -1.362584
 O         1.157991         0.974091        -1.842461
 C         1.294093         0.466712        -0.443729
 C         0.197759        -0.312387         0.167330
 H         0.880058         3.152616         1.223597
 H         1.943808         3.923242        -0.111480
 H         0.315990         3.223911        -0.358475
 H         3.942166         1.921695         0.803454
 H         3.004776         1.245050         2.111481
 H         3.059360        -0.760581        -1.435376
 H         3.030827         1.953251        -2.109995
 H         0.615467        -0.532181         1.214696
 H        -0.688141         0.333032         0.251671
 H         0.101088        -1.210469        -0.296656
