19
Iteration:   770
 C         1.316491         3.060607         0.362939
 C         2.040882         1.767420         0.006887
 C         3.139733         1.307740         1.015711
 O         3.550273         0.045244         0.471094
 C         2.712921        -0.066471        -0.681406
 C         2.466247         1.367071        -1.458897
 O         1.073320         0.951800        -1.795418
 C         1.271416         0.443121        -0.401702
 C         0.125633        -0.282055         0.112238
 H         0.705742         3.122831         1.339183
 H         1.981236         3.923142         0.299034
 H         0.600518         3.314509        -0.444816
 H         3.937310         1.987044         1.057283
 H         2.665326         1.382459         2.042419
 H         2.889566        -1.062486        -1.174739
 H         3.128767         1.891099        -2.124419
 H         0.111639        -0.382545         1.232920
 H        -0.837349         0.116024        -0.237092
 H         0.040892        -1.235176        -0.450954
