19
Iteration:  3141
 C         1.163759         3.017318         0.253983
 C         2.104550         1.852227         0.059303
 C         3.148452         1.362548         1.060399
 O         3.430070        -0.031001         0.511101
 C         2.676036        -0.014782        -0.663556
 C         2.493538         1.287528        -1.451616
 O         1.199396         0.988648        -1.890306
 C         1.297821         0.463146        -0.447216
 C         0.163666        -0.270899         0.208183
 H         0.748402         2.991801         1.271129
 H         1.672476         4.107840         0.059910
 H         0.403703         2.917777        -0.523607
 H         4.044578         1.962858         1.277802
 H         2.632733         1.209510         1.968807
 H         2.862746        -0.920992        -1.437388
 H         3.289637         1.535794        -2.178355
 H         0.622326        -0.485985         1.218759
 H        -0.727531         0.350084         0.408433
 H        -0.114778        -1.173911        -0.414700
