19
Iteration:  2695
 C         1.254182         3.147765         0.192268
 C         1.924112         1.758622         0.042164
 C         2.966272         1.288449         1.068663
 O         3.657086         0.043772         0.368570
 C         2.703025        -0.092965        -0.750773
 C         2.542697         1.334175        -1.332015
 O         1.155482         0.914673        -1.854459
 C         1.310251         0.451901        -0.344819
 C         0.132691        -0.242156         0.255095
 H         0.817220         3.148146         1.250686
 H         1.968286         3.971229         0.090036
 H         0.565169         3.305359        -0.520649
 H         3.694327         2.034157         1.249935
 H         2.412385         0.889185         1.957669
 H         2.950767        -1.044004        -1.358248
 H         3.214596         1.947838        -1.908596
 H         0.208628        -0.345257         1.404494
 H        -0.753903         0.400212         0.095250
 H         0.007489        -1.213524        -0.240287
