19
Iteration:  1109
 C         1.238799         3.037766         0.225860
 C         2.036963         1.822350         0.088955
 C         3.287513         1.442959         0.947107
 O         3.471597         0.073513         0.499138
 C         2.669662        -0.058030        -0.652401
 C         2.507394         1.287600        -1.353684
 O         1.137186         0.935578        -1.865259
 C         1.231399         0.483739        -0.309091
 C         0.060238        -0.372328         0.112562
 H         0.865065         3.159977         1.330218
 H         1.945774         3.898412         0.209309
 H         0.426620         3.094873        -0.444673
 H         4.235673         2.137007         0.723180
 H         3.072622         1.532359         1.954105
 H         2.886220        -1.085715        -1.312233
 H         3.108135         1.681395        -2.107855
 H         0.413392        -1.256593         0.682834
 H        -0.728127         0.051346         0.632925
 H        -0.273838        -0.902946        -0.699307
