19
Iteration:  1196
 C         1.160637         3.049071         0.210164
 C         1.968278         1.753195         0.030153
 C         3.031407         1.309338         1.034325
 O         3.522463         0.066317         0.442714
 C         2.687217        -0.036871        -0.733361
 C         2.609410         1.294777        -1.416210
 O         1.195329         0.967239        -1.906471
 C         1.292403         0.433902        -0.437283
 C         0.179654        -0.222812         0.376144
 H         0.506314         2.823231         1.115546
 H         1.781375         3.878311         0.566488
 H         0.499607         3.234210        -0.571258
 H         3.961380         1.952268         0.944138
 H         2.735731         1.131766         2.070644
 H         2.923709        -1.055503        -1.341991
 H         3.239775         1.654017        -2.166512
 H         0.620842        -0.420176         1.408796
 H        -0.524871         0.576500         0.456765
 H        -0.295783        -1.096710        -0.019416
