19
Iteration:  4703charge 0 multiplicity 1
 C         1.327876         3.120136         0.172400
 C         2.063862         1.737167         0.030525
 C         3.038609         1.236176         1.099139
 O         3.641278         0.109710         0.499504
 C         2.734785        -0.030545        -0.723176
 C         2.495308         1.365572        -1.345295
 O         1.114269         0.932924        -1.708290
 C         1.245561         0.462305        -0.423435
 C         0.030638        -0.351738         0.030134
 H         0.622066         3.248553         1.103443
 H         2.014948         3.959650         0.425309
 H         0.573509         3.448329        -0.623664
 H         3.810650         2.003055         1.413744
 H         2.419444         0.895047         1.914380
 H         2.948168        -0.911670        -1.363036
 H         3.109303         1.875650        -2.205395
 H         0.184711        -0.705395         1.134249
 H        -0.876776         0.320148         0.014278
 H        -0.048184        -1.104707        -0.732437
