19
Iteration:    76charge 0 multiplicity 1
 C         1.267309         3.067447         0.203558
 C         1.983647         1.774420         0.024654
 C         3.040247         1.380016         1.008968
 O         3.508513         0.119346         0.464495
 C         2.755800        -0.044230        -0.645313
 C         2.495915         1.323464        -1.380610
 O         1.193372         0.929421        -1.792655
 C         1.286593         0.377286        -0.404682
 C         0.126179        -0.356250         0.143297
 H         0.455683         3.082199         0.965699
 H         2.001651         3.839449         0.458367
 H         0.818471         3.395414        -0.761223
 H         3.927939         2.046158         1.197002
 H         2.598580         1.184805         1.962902
 H         3.065078        -0.965990        -1.060250
 H         3.025535         1.825183        -2.119910
 H         0.504579        -0.840811         1.080730
 H        -0.531640         0.482130         0.410176
 H        -0.483268        -0.915597        -0.463515
