19
Iteration:  2265
 C         1.166171         3.041989         0.159708
 C         1.974444         1.756515         0.033659
 C         3.052258         1.283152         1.105211
 O         3.722985         0.116423         0.364297
 C         2.734689        -0.132260        -0.710825
 C         2.514349         1.335198        -1.349905
 O         1.189331         0.912692        -1.864018
 C         1.261293         0.379499        -0.387335
 C         0.047186        -0.128656         0.307316
 H         0.544073         3.041898         1.051981
 H         1.942308         3.973373         0.134969
 H         0.415158         3.238369        -0.612175
 H         3.777179         1.963512         1.549246
 H         2.470656         0.845634         2.028176
 H         2.995979        -0.860421        -1.329511
 H         3.225622         1.890558        -1.930018
 H         0.157094        -0.516667         1.287180
 H        -0.748043         0.669579         0.182633
 H        -0.291281        -0.959253        -0.447276
