19
Iteration:   338
 C         1.338406         3.083394         0.245014
 C         1.975178         1.757448         0.059527
 C         3.058365         1.287415         1.049575
 O         3.708476         0.133640         0.378470
 C         2.778421        -0.063937        -0.679938
 C         2.492476         1.368042        -1.388524
 O         1.148626         0.871489        -1.715901
 C         1.222925         0.468144        -0.333689
 C        -0.029941        -0.278215         0.032611
 H         0.772904         2.957232         1.238225
 H         2.084898         3.937835         0.373672
 H         0.533589         3.284439        -0.477101
 H         3.700992         2.098040         1.345774
 H         2.558956         0.760356         1.992874
 H         2.935578        -0.921030        -1.336626
 H         3.017849         1.840503        -2.165664
 H        -0.286403        -0.526379         1.225227
 H        -0.904251         0.439896        -0.235421
 H        -0.067046        -1.238517        -0.557347
