19
Iteration:  1249
 C         1.175039         3.122331         0.297634
 C         2.044508         1.794534         0.085250
 C         3.210303         1.449896         0.925277
 O         3.479018         0.044871         0.483911
 C         2.726738        -0.096935        -0.688214
 C         2.508938         1.260383        -1.456396
 O         1.169829         0.919420        -1.778831
 C         1.281266         0.482794        -0.330535
 C         0.071013        -0.327010         0.102105
 H         0.634865         3.226294         1.273369
 H         1.914970         3.977162         0.375253
 H         0.519694         3.161888        -0.506372
 H         4.076686         2.097227         0.855034
 H         3.005711         1.292377         2.065474
 H         2.916528        -1.161573        -1.213625
 H         3.052681         1.608311        -2.326135
 H        -0.010251        -0.479837         1.273280
 H        -0.812491         0.204468        -0.299773
 H         0.185957        -1.404801        -0.178375
