19
Iteration:  4260charge 0 multiplicity 1
 C         1.189899         2.998907         0.357540
 C         1.993939         1.777572         0.008283
 C         3.087214         1.343476         1.036592
 O         3.616195         0.060174         0.491893
 C         2.695703        -0.092399        -0.671107
 C         2.545946         1.294464        -1.450178
 O         1.215498         0.943616        -1.845857
 C         1.307225         0.537496        -0.449027
 C         0.032974        -0.201235         0.132282
 H         0.478039         2.643880         1.037351
 H         1.900394         3.723132         0.821203
 H         0.523210         3.285352        -0.490396
 H         3.942063         2.073580         1.196663
 H         2.631766         1.161834         2.072945
 H         2.915863        -1.090845        -1.023451
 H         2.882741         1.801666        -2.317842
 H         0.224578        -0.761123         1.128284
 H        -0.943977         0.372204         0.082853
 H        -0.007692        -0.984930        -0.600983
