19
Iteration:  1106
 C         1.230572         3.033427         0.248409
 C         2.076388         1.841958         0.100916
 C         3.304138         1.453607         0.938142
 O         3.427741         0.076209         0.516821
 C         2.674227        -0.080999        -0.675324
 C         2.483404         1.284598        -1.350068
 O         1.126933         0.928004        -1.872630
 C         1.251499         0.502452        -0.308271
 C         0.097574        -0.372759         0.099394
 H         0.865886         3.141595         1.246970
 H         1.949741         3.909063         0.259239
 H         0.419634         3.036413        -0.468249
 H         4.147284         2.158009         0.696486
 H         3.074280         1.475092         2.005456
 H         2.849187        -1.071877        -1.241160
 H         3.130851         1.663018        -2.213419
 H         0.417265        -1.250080         0.721416
 H        -0.736966         0.116105         0.610485
 H        -0.329531        -1.007005        -0.739601
