19
Iteration:  4251charge 0 multiplicity 1
 C         1.204814         2.913025         0.395118
 C         2.031270         1.828283        -0.035002
 C         3.104045         1.363858         1.020146
 O         3.510474         0.056010         0.461808
 C         2.754780        -0.073526        -0.580923
 C         2.567477         1.341191        -1.509277
 O         1.206553         0.961923        -1.854163
 C         1.245324         0.444553        -0.415085
 C         0.082103        -0.226386         0.124431
 H         0.467196         2.588607         1.131348
 H         1.650672         3.918104         0.747394
 H         0.571308         3.298560        -0.429037
 H         4.009165         1.970658         1.022477
 H         2.687266         1.376785         2.024638
 H         2.791237        -1.027175        -1.002100
 H         3.366378         1.795590        -2.101235
 H         0.222845        -0.605439         1.146164
 H        -0.756562         0.520042         0.187295
 H        -0.273870        -1.033727        -0.628257
