19
Iteration:   325
 C         1.283717         3.089744         0.264129
 C         2.031760         1.769532         0.061314
 C         3.043352         1.187171         1.130953
 O         3.690795         0.174236         0.366578
 C         2.809269         0.032208        -0.725747
 C         2.434138         1.337276        -1.376017
 O         1.100555         0.799314        -1.754719
 C         1.332862         0.361572        -0.348204
 C        -0.023483        -0.168403         0.046452
 H         0.831617         3.334497         1.284776
 H         2.009901         3.857057         0.083499
 H         0.526249         3.258166        -0.607217
 H         3.816611         1.727662         1.541199
 H         2.378942         0.796836         2.013938
 H         3.056700        -0.798988        -1.241536
 H         2.986392         1.938410        -2.085286
 H        -0.141943        -0.487731         1.178568
 H        -0.762200         0.673465        -0.216632
 H        -0.214575        -1.008579        -0.556681
