19
Iteration:   975charge 0 multiplicity 1
 C         1.195570         3.047281         0.341635
 C         1.948110         1.722949         0.018413
 C         3.210106         1.371621         0.886449
 O         3.586302         0.015421         0.444542
 C         2.689532        -0.041288        -0.653622
 C         2.508885         1.313129        -1.360256
 O         1.230585         0.967629        -1.815844
 C         1.218806         0.445433        -0.410957
 C         0.027301        -0.250922         0.199346
 H         0.689967         3.018110         1.316425
 H         1.893075         3.929263         0.122458
 H         0.358870         3.156364        -0.467821
 H         4.093082         2.080872         0.684041
 H         3.043683         1.441646         1.929330
 H         2.833251        -0.981530        -1.302145
 H         3.319934         1.934823        -1.891773
 H         0.187030        -0.424733         1.222803
 H        -0.922135         0.284414         0.186628
 H        -0.064245        -1.288514        -0.292826
