19
Iteration:  1920charge 0 multiplicity 1
 C         1.096225         2.973865         0.343020
 C         2.053462         1.803054        -0.071231
 C         3.175016         1.356977         0.917586
 O         3.407732        -0.007577         0.587689
 C         2.783042        -0.056552        -0.641440
 C         2.504757         1.342496        -1.416559
 O         1.171687         0.885139        -1.860142
 C         1.370778         0.493305        -0.434664
 C         0.177495        -0.174401         0.168430
 H         0.442198         2.860997         1.242541
 H         1.649236         3.833497         0.502038
 H         0.487739         3.105833        -0.632858
 H         4.197077         1.850589         0.919100
 H         2.633324         1.617145         1.800928
 H         2.885921        -0.964769        -1.158557
 H         2.937322         1.941313        -2.136314
 H         0.377035        -0.406541         1.336296
 H        -0.658574         0.566419         0.222017
 H        -0.068531        -1.134888        -0.299845
