19
Iteration:  3851charge 0 multiplicity 1
 C         1.213199         3.068842         0.319556
 C         2.015719         1.753818         0.099351
 C         3.094251         1.312135         1.045534
 O         3.523384        -0.024861         0.450815
 C         2.772183        -0.025515        -0.697549
 C         2.529669         1.370500        -1.376266
 O         1.205782         0.917558        -1.898705
 C         1.257209         0.530538        -0.464743
 C         0.090691        -0.258141         0.198037
 H         0.584518         2.928241         1.271996
 H         1.899455         3.907669         0.201003
 H         0.489549         3.139648        -0.449338
 H         3.836861         2.063617         0.857702
 H         2.741933         1.286262         2.083414
 H         2.990301        -0.964268        -1.132300
 H         3.046831         1.837242        -2.281630
 H         0.232803        -0.574320         1.154868
 H        -0.773921         0.362333         0.243905
 H        -0.304091        -1.117119        -0.453100
