19
Iteration:   561
 C         1.269927         3.070510         0.279753
 C         1.973164         1.730099         0.072221
 C         3.012370         1.243487         1.146898
 O         3.496917        -0.027937         0.421715
 C         2.786806         0.027363        -0.846442
 C         2.530070         1.360824        -1.423694
 O         1.090635         0.987230        -1.852898
 C         1.314421         0.441380        -0.479623
 C         0.211172        -0.216901         0.310664
 H         0.673414         3.176877         1.183060
 H         2.084317         3.833387         0.223837
 H         0.597905         3.322985        -0.654140
 H         3.909793         1.714871         1.456495
 H         2.418863         1.016724         2.126309
 H         2.993714        -0.765847        -1.437001
 H         3.062302         1.979246        -2.195971
 H         0.444690        -0.156095         1.322117
 H        -0.749637         0.202072        -0.050563
 H         0.067160        -1.375047         0.021516
