19
Iteration:  1783charge 0 multiplicity 1
 C         1.186097         3.028012         0.266533
 C         2.043922         1.823054        -0.005432
 C         3.152204         1.373928         0.890252
 O         3.372290        -0.021610         0.636364
 C         2.718781        -0.035703        -0.625467
 C         2.574100         1.381407        -1.428808
 O         1.186269         0.934078        -1.883651
 C         1.279827         0.473285        -0.461191
 C         0.181691        -0.313732         0.216597
 H         0.844183         3.067109         1.279727
 H         1.542656         4.113424         0.093576
 H         0.332069         2.835375        -0.400515
 H         4.099451         1.977210         0.757645
 H         2.761742         1.434372         1.910132
 H         2.850972        -0.941092        -1.128862
 H         3.169315         1.889232        -2.300472
 H         0.628619        -0.768096         1.111121
 H        -0.588984         0.343124         0.580858
 H        -0.138345        -1.133921        -0.356482
