19
Iteration:  3825charge 0 multiplicity 1
 C         1.235003         3.065716         0.301713
 C         2.130121         1.781328        -0.010354
 C         3.150344         1.426145         0.970877
 O         3.394328         0.020138         0.493409
 C         2.658233        -0.128408        -0.705241
 C         2.564737         1.297713        -1.335528
 O         1.165289         1.044286        -1.786544
 C         1.257917         0.515658        -0.403853
 C         0.134892        -0.392731         0.101966
 H         0.578540         2.789765         1.134409
 H         1.979843         3.766703         0.583264
 H         0.600581         3.539378        -0.544331
 H         4.041741         2.011598         0.870729
 H         2.699188         1.526957         1.924384
 H         2.970364        -1.103276        -1.233356
 H         3.081636         1.882599        -2.069583
 H         0.418070        -0.754361         1.161174
 H        -0.948977        -0.079861         0.169145
 H         0.127967        -1.210690        -0.520878
