19
Iteration:  2984
 C         1.192019         3.014721         0.197745
 C         2.052460         1.784361        -0.024041
 C         3.102290         1.329558         1.072289
 O         3.507772         0.006135         0.469150
 C         2.826863        -0.055075        -0.723933
 C         2.604099         1.336343        -1.377423
 O         1.144480         0.888921        -1.846816
 C         1.224974         0.559109        -0.438848
 C         0.075942        -0.209369         0.257459
 H         0.741269         2.834508         1.179585
 H         1.498808         4.046128         0.167385
 H         0.237842         2.920517        -0.476094
 H         3.940891         1.951961         1.214184
 H         2.632874         1.204590         2.054814
 H         2.921783        -0.994687        -1.196010
 H         3.171590         2.030643        -2.028681
 H         0.644223        -0.692516         1.080768
 H        -0.760331         0.450913         0.586687
 H        -0.323664        -1.009216        -0.286224
