19
Iteration:  4781
 C         1.111057         2.879592         0.291188
 C         2.104199         1.806689        -0.008906
 C         3.064127         1.312577         1.047049
 O         3.407651         0.011784         0.561549
 C         2.729043         0.001924        -0.731054
 C         2.569017         1.316777        -1.474823
 O         1.188543         0.959006        -1.835361
 C         1.363290         0.510469        -0.393309
 C         0.166559        -0.174612         0.128612
 H         0.752022         2.832913         1.393562
 H         1.604442         3.843964         0.310284
 H         0.338890         3.127310        -0.566457
 H         4.040274         1.875737         1.221956
 H         2.623722         1.065843         1.987338
 H         2.689083        -0.858442        -1.329165
 H         3.228017         1.908772        -2.254075
 H         0.622432        -0.661727         1.139026
 H        -0.504985         0.650795         0.451460
 H        -0.140112        -0.978614        -0.460905
