19
Iteration:   574
 C         1.344951         3.022942         0.194563
 C         2.003333         1.695755         0.089253
 C         2.962705         1.128207         1.134369
 O         3.626849         0.117627         0.364963
 C         2.729590        -0.033937        -0.753971
 C         2.457547         1.399392        -1.407912
 O         1.159998         1.067188        -1.869245
 C         1.224526         0.430826        -0.433720
 C         0.134460        -0.246029         0.303177
 H         0.741764         3.115139         1.125215
 H         2.028735         3.834147         0.230504
 H         0.638134         3.108984        -0.659724
 H         3.603087         1.957027         1.432650
 H         2.461777         0.669246         1.986950
 H         3.002552        -0.869383        -1.313262
 H         3.179724         1.832492        -2.099151
 H         0.257364        -0.063557         1.345354
 H        -0.829360         0.262512         0.178394
 H         0.124863        -1.383741         0.142812
