19
Iteration:   735charge 0 multiplicity 1
 C         1.326851         3.065547         0.122637
 C         1.957694         1.658822         0.111749
 C         2.973371         1.126406         1.108276
 O         3.713126         0.171049         0.286914
 C         2.724468        -0.003622        -0.760541
 C         2.568297         1.392386        -1.291842
 O         1.136216         0.986971        -1.781851
 C         1.196225         0.451058        -0.376235
 C         0.008539        -0.257066         0.274285
 H         0.665575         3.337565         0.863398
 H         2.195423         3.774794         0.127612
 H         0.784462         3.092620        -0.927963
 H         3.768848         1.767700         1.433971
 H         2.459450         0.695033         1.964115
 H         2.982310        -0.816780        -1.314053
 H         3.136016         2.119990        -1.948240
 H         0.371076        -0.746961         1.121774
 H        -0.813428         0.425955         0.575345
 H        -0.121626        -1.195167        -0.420126
