19
Iteration:  1803charge 0 multiplicity 1
 C         1.208131         3.058097         0.237577
 C         1.984664         1.773814         0.000039
 C         3.136735         1.484273         1.002188
 O         3.337278         0.054770         0.524582
 C         2.639718        -0.084234        -0.727882
 C         2.568515         1.269662        -1.340934
 O         1.267463         0.979248        -1.911034
 C         1.244236         0.424336        -0.444733
 C         0.204999        -0.351864         0.247247
 H         1.227101         3.195390         1.278240
 H         1.879260         3.988503        -0.048244
 H         0.055873         3.173236        -0.131078
 H         4.086261         1.936633         0.790670
 H         3.021978         1.427966         2.194588
 H         2.862268        -0.934014        -1.193771
 H         3.338119         1.799226        -2.004003
 H         0.807052        -0.765760         1.135963
 H        -0.680921         0.094384         0.676415
 H        -0.045422        -1.167345        -0.385099
