19
Iteration:  1320charge 0 multiplicity 1
 C         1.265058         3.051628         0.210037
 C         2.034897         1.795821        -0.002907
 C         2.947448         1.270921         1.073508
 O         3.604664         0.090608         0.447620
 C         2.721080        -0.020204        -0.700753
 C         2.516989         1.362421        -1.394036
 O         1.160005         0.844352        -1.797787
 C         1.258759         0.420650        -0.493901
 C         0.152181        -0.191299         0.303435
 H         0.844542         3.210540         1.180066
 H         1.906084         3.859754        -0.168226
 H         0.530341         3.156418        -0.760128
 H         3.883152         1.847203         1.527036
 H         2.351542         1.020901         1.878697
 H         2.838225        -0.822868        -1.324247
 H         3.076867         2.008342        -2.178706
 H         0.515752        -0.780522         1.071227
 H        -0.688639         0.428534         0.657229
 H        -0.165474        -0.988206        -0.405970
