19
Iteration:  1213
 C         1.193775         2.889419         0.267903
 C         2.059801         1.739780        -0.000505
 C         3.176811         1.418321         0.928420
 O         3.405540        -0.002337         0.538428
 C         2.707102        -0.058144        -0.688766
 C         2.480582         1.372738        -1.422354
 O         1.219318         0.969587        -1.878940
 C         1.262970         0.491830        -0.447724
 C         0.157180        -0.220843         0.330301
 H         0.398598         2.789878         0.972369
 H         1.844712         3.811521         0.385440
 H         0.722635         3.174055        -0.769318
 H         3.969243         2.117059         0.782837
 H         2.841562         1.296685         2.029934
 H         2.918149        -0.962096        -1.157752
 H         3.132000         2.107397        -2.077185
 H         0.614058        -0.168835         1.326373
 H        -0.901165         0.170824         0.406042
 H         0.082047        -1.231684        -0.240060
