19
Iteration:  2553charge 0 multiplicity 1
 C         1.336664         3.121115         0.126360
 C         1.988394         1.708009         0.061164
 C         2.957984         1.257589         1.092528
 O         3.596296         0.110452         0.357811
 C         2.749284        -0.029037        -0.738854
 C         2.530362         1.347874        -1.354333
 O         1.180766         0.902134        -1.775131
 C         1.182041         0.536419        -0.398455
 C         0.129941        -0.322548         0.239167
 H         0.906098         3.243161         1.214180
 H         2.101639         3.966194         0.154227
 H         0.554075         3.227627        -0.629007
 H         3.781811         1.843582         1.349897
 H         2.364790         0.909789         1.962418
 H         2.899394        -1.095729        -1.121153
 H         3.016999         1.913234        -2.112859
 H         0.417559        -0.599971         1.304299
 H        -0.785754         0.207707         0.457957
 H        -0.101871        -1.067412        -0.420642
