19
Iteration:  4585charge 0 multiplicity 1
 C         1.197515         3.001357         0.268409
 C         1.997921         1.758175         0.070990
 C         3.026061         1.303644         1.082008
 O         3.567248         0.111260         0.377988
 C         2.769452        -0.072254        -0.667150
 C         2.615344         1.298751        -1.387633
 O         1.224951         0.997532        -1.833444
 C         1.269445         0.410300        -0.432829
 C         0.018893        -0.225739         0.141738
 H         0.555765         2.951269         1.164561
 H         1.938430         3.651743         0.464804
 H         0.543290         3.142613        -0.648495
 H         3.787853         2.094293         1.273998
 H         2.738192         0.856523         2.131406
 H         2.868048        -1.001477        -1.185857
 H         3.214206         2.097282        -1.949936
 H         0.142627        -0.816259         1.127334
 H        -0.702093         0.578727         0.439796
 H        -0.409696        -0.803563        -0.624421
