19
Iteration:  3000
 C         1.102962         3.003560         0.240370
 C         2.052525         1.804567         0.039095
 C         3.100302         1.352173         0.964653
 O         3.474944         0.032985         0.506134
 C         2.661631        -0.043941        -0.703822
 C         2.587719         1.297903        -1.394210
 O         1.286267         1.024538        -1.879516
 C         1.261100         0.370161        -0.477244
 C         0.104246        -0.243112         0.325134
 H         0.616562         3.056125         1.233495
 H         1.741113         3.903172         0.061422
 H         0.420619         3.054364        -0.532193
 H         4.057941         2.005486         0.967068
 H         2.883078         1.254157         2.045961
 H         3.043447        -0.855382        -1.414619
 H         3.302755         1.593713        -2.168066
 H         0.429507        -0.688373         1.269744
 H        -0.605428         0.463168         0.742039
 H        -0.433367        -1.020788        -0.342588
