19
Iteration:  2796
 C         1.246075         3.082446         0.256381
 C         2.046285         1.731360         0.021944
 C         2.993174         1.334052         1.025685
 O         3.620384         0.146255         0.404300
 C         2.799231        -0.122513        -0.659615
 C         2.528422         1.307221        -1.431631
 O         1.146715         0.908056        -1.754139
 C         1.307413         0.404361        -0.442350
 C         0.030034        -0.184372         0.216481
 H         0.600685         3.006026         1.129700
 H         1.872489         3.898160         0.296117
 H         0.562702         3.196192        -0.626569
 H         3.757391         2.018026         1.244208
 H         2.542865         1.069805         1.996195
 H         2.876464        -1.177900        -1.231771
 H         3.058850         1.992768        -2.187088
 H         0.341426        -0.907335         0.908660
 H        -0.724196         0.489481         0.584818
 H        -0.480976        -0.902580        -0.541357
