19
Iteration:  1915
 C         1.098155         2.954632         0.295597
 C         2.022823         1.803337        -0.046499
 C         3.181405         1.396028         0.916870
 O         3.426738        -0.018121         0.579016
 C         2.794147        -0.040103        -0.679242
 C         2.518439         1.310575        -1.434808
 O         1.178498         0.892269        -1.870488
 C         1.324997         0.488214        -0.347196
 C         0.175696        -0.186354         0.203544
 H         0.368641         2.750053         1.161118
 H         1.845994         3.807724         0.577701
 H         0.466534         3.268745        -0.491695
 H         4.137388         1.982870         0.950020
 H         2.682901         1.471569         1.939878
 H         2.856245        -1.051638        -1.281133
 H         3.148207         2.065643        -2.076927
 H         0.299321        -0.333081         1.198555
 H        -0.619364         0.544676         0.026076
 H        -0.175363        -1.034816        -0.420195
