19
Iteration:  4147charge 0 multiplicity 1
 C         1.375812         3.127378         0.205760
 C         2.004156         1.779837         0.069777
 C         2.961167         1.296638         1.096084
 O         3.550517         0.104851         0.410311
 C         2.774927        -0.018718        -0.685785
 C         2.552928         1.376604        -1.361545
 O         1.110812         0.941126        -1.847528
 C         1.227518         0.395129        -0.376384
 C         0.078844        -0.376983         0.139841
 H         0.846769         3.106857         1.205731
 H         2.116804         3.815962         0.396230
 H         0.779492         3.346759        -0.639601
 H         3.898945         1.919034         1.376076
 H         2.515574         0.924004         2.065616
 H         3.034946        -0.890043        -1.410087
 H         3.122323         2.011214        -2.148206
 H         0.396806        -0.731537         1.144149
 H        -0.761019         0.298736         0.238420
 H        -0.158555        -1.311705        -0.470203
