19
Iteration:  3817
 C         1.333673         3.037733         0.270046
 C         2.051730         1.840120        -0.006273
 C         3.136522         1.405529         0.962341
 O         3.414118        -0.013553         0.531927
 C         2.715365        -0.071035        -0.673739
 C         2.534384         1.341018        -1.411713
 O         1.148512         1.069059        -1.770880
 C         1.216448         0.494031        -0.437439
 C         0.121311        -0.447406         0.144901
 H         0.636876         2.777578         1.180480
 H         1.824153         3.843243         0.781792
 H         0.817319         3.275954        -0.681519
 H         3.969205         2.084023         0.891352
 H         2.818913         1.487140         2.016416
 H         2.871289        -1.085520        -1.110980
 H         3.248461         1.792589        -2.181455
 H         0.317107        -0.834690         1.087772
 H        -0.856208         0.034785         0.081829
 H         0.113930        -1.276664        -0.599300
