19
Iteration:   491
 C         1.227781         3.007543         0.359120
 C         2.052796         1.758884         0.010033
 C         3.152467         1.432353         0.930104
 O         3.595245         0.028644         0.427354
 C         2.707768        -0.077994        -0.645643
 C         2.482486         1.344255        -1.347380
 O         1.183226         0.949276        -1.764858
 C         1.287647         0.394939        -0.373280
 C        -0.016887        -0.252470         0.048646
 H         0.681201         3.007633         1.351832
 H         1.993985         3.874887         0.363591
 H         0.561171         3.312984        -0.399923
 H         3.925127         2.197831         0.936979
 H         2.819832         1.203098         2.013603
 H         2.881873        -1.073368        -1.286560
 H         3.031372         1.991115        -2.009703
 H         0.219374        -1.137109         0.765292
 H        -0.708824         0.497845         0.454103
 H        -0.503749        -0.634514        -0.749009
