19
Iteration:  1462
 C         1.274450         3.144078         0.157924
 C         1.985326         1.784735         0.005090
 C         2.994126         1.260681         1.037352
 O         3.609518         0.016841         0.475826
 C         2.800787        -0.020053        -0.690814
 C         2.503004         1.410633        -1.327503
 O         1.096072         0.853679        -1.789924
 C         1.335528         0.409360        -0.426398
 C         0.072992        -0.256462         0.218836
 H         1.210331         3.361613         1.131930
 H         1.849352         3.818834        -0.389457
 H         0.234157         3.296509        -0.330972
 H         3.899502         1.920129         1.356175
 H         2.437959         0.985360         1.898586
 H         3.008820        -0.803163        -1.451147
 H         3.134832         2.063636        -2.095817
 H         0.148174        -0.202184         1.288053
 H        -0.834036         0.325412        -0.083825
 H         0.109321        -1.315962        -0.170068
