19
Iteration:  3868charge 0 multiplicity 1
 C         1.239720         2.986907         0.269235
 C         1.941986         1.729763        -0.016644
 C         3.060235         1.253540         1.041283
 O         3.581779         0.069579         0.459600
 C         2.818420        -0.006772        -0.748090
 C         2.512145         1.402811        -1.362160
 O         1.220980         0.912972        -1.825828
 C         1.275947         0.366378        -0.437764
 C        -0.001082        -0.133859         0.204065
 H         0.941165         2.957638         1.318383
 H         1.930902         3.857945         0.167317
 H         0.351143         3.045536        -0.497362
 H         3.890075         2.021450         1.361028
 H         2.518945         0.952060         1.978971
 H         3.101252        -0.858122        -1.498577
 H         3.209072         2.069660        -1.848713
 H         0.406891        -0.518461         1.281996
 H        -0.830892         0.672424         0.347188
 H        -0.446405        -0.929080        -0.336639
