19
Iteration:  1584
 C         1.294657         3.043532         0.135112
 C         1.985950         1.732955         0.093529
 C         2.935370         1.251634         1.122233
 O         3.657506         0.252693         0.352589
 C         2.765731        -0.012168        -0.687487
 C         2.546315         1.199011        -1.442585
 O         1.211704         0.893295        -1.782807
 C         1.257875         0.448248        -0.326207
 C        -0.036976        -0.240624         0.218142
 H         0.638465         3.138601         0.923844
 H         2.088973         3.798517         0.288236
 H         0.702426         3.432904        -0.826801
 H         3.715826         2.061380         1.356934
 H         2.618058         0.793772         2.022775
 H         3.010208        -1.012694        -1.189038
 H         3.200986         1.765509        -2.333735
 H         0.454009        -0.971218         0.987365
 H        -0.719719         0.394564         0.815255
 H        -0.518739        -0.625200        -0.695573
