19
Iteration:  2204
 C         1.269693         3.054403         0.275689
 C         1.997433         1.820215        -0.059854
 C         3.122219         1.402274         0.955763
 O         3.377411         0.007981         0.535775
 C         2.692570        -0.005187        -0.648420
 C         2.576217         1.339465        -1.431344
 O         1.207293         0.936397        -1.797383
 C         1.232642         0.483496        -0.434249
 C         0.166664        -0.364785         0.239702
 H         0.667279         2.984720         1.258917
 H         1.825418         3.933007         0.302492
 H         0.544879         3.085444        -0.633830
 H         4.027925         1.987961         0.692582
 H         3.005226         1.384678         1.992749
 H         3.094126        -0.956557        -1.252617
 H         3.156534         1.785024        -2.268049
 H         0.519627        -0.925374         1.139803
 H        -0.777117         0.095982         0.520851
 H        -0.033656        -1.060263        -0.512701
