19
Iteration:  2825charge 0 multiplicity 1
 C         1.211523         3.030117         0.172109
 C         2.047778         1.727793         0.012507
 C         3.024456         1.228212         1.079081
 O         3.616373         0.123339         0.474956
 C         2.760891        -0.039581        -0.711544
 C         2.476851         1.388782        -1.450615
 O         1.168969         0.893521        -1.846200
 C         1.332882         0.394188        -0.432024
 C         0.070306        -0.150692         0.287135
 H         0.673988         3.154325         1.210338
 H         1.957941         3.909469         0.201147
 H         0.468369         3.080852        -0.549802
 H         3.834591         1.958454         1.347422
 H         2.453310         0.912647         1.986022
 H         2.832882        -0.958142        -1.281327
 H         3.054620         2.011019        -2.088863
 H         0.342707        -0.805383         1.170880
 H        -0.713283         0.569969         0.589610
 H        -0.477823        -0.869046        -0.312323
