19
Iteration:  1691
 C         1.301500         3.030627         0.202512
 C         1.976947         1.787592         0.005265
 C         3.038372         1.311698         1.094322
 O         3.590479         0.158897         0.413395
 C         2.758155        -0.053564        -0.648516
 C         2.486873         1.375821        -1.425162
 O         1.177748         0.825192        -1.782131
 C         1.290768         0.331043        -0.381593
 C         0.066277        -0.189257         0.178780
 H         0.735121         2.892032         1.165536
 H         2.036861         3.794662         0.421490
 H         0.653456         3.458464        -0.731421
 H         3.761832         2.057237         1.319627
 H         2.420528         0.995357         2.050061
 H         2.985709        -0.891265        -1.402428
 H         2.970967         1.919322        -2.223731
 H        -0.072488        -0.242423         1.239225
 H        -0.556118         0.559047        -0.315583
 H        -0.167854        -1.238503        -0.111217
