19
Iteration:  3017charge 0 multiplicity 1
 C         1.203862         2.978665         0.209327
 C         1.939806         1.699167         0.025705
 C         3.117550         1.396253         0.961889
 O         3.455111         0.034734         0.517171
 C         2.729909        -0.139738        -0.686994
 C         2.532896         1.341563        -1.351857
 O         1.207951         1.037648        -1.924897
 C         1.308071         0.437382        -0.386304
 C         0.164604        -0.230470         0.235797
 H         0.692377         2.866799         1.190078
 H         1.886890         3.854484         0.283229
 H         0.404133         3.110470        -0.669179
 H         3.917372         2.031740         0.742300
 H         2.873849         1.375156         2.026788
 H         2.817841        -1.102488        -1.010944
 H         3.222405         2.078214        -1.794449
 H         0.551569        -0.660463         1.217724
 H        -0.548011         0.579718         0.629343
 H        -0.308199        -0.906895        -0.369393
