19
Iteration:  1978charge 0 multiplicity 1
 C         1.257400         3.111721         0.123346
 C         1.982411         1.746923         0.049299
 C         3.003273         1.333247         1.153827
 O         3.632990         0.080749         0.413890
 C         2.745874        -0.027295        -0.691549
 C         2.536497         1.307157        -1.343806
 O         1.149138         0.909150        -1.809721
 C         1.242102         0.456328        -0.432926
 C         0.127721        -0.321829         0.171490
 H         0.947117         3.220654         1.119261
 H         1.990740         3.927386        -0.266240
 H         0.328339         3.346326        -0.504664
 H         3.841610         1.981321         1.350788
 H         2.547051         0.957666         2.137599
 H         2.814585        -0.980512        -1.250728
 H         3.042716         2.050939        -2.049995
 H         0.478166        -0.757402         1.227620
 H        -0.701828         0.431972         0.395301
 H        -0.459764        -1.113116        -0.365810
