19
Iteration:  4806charge 0 multiplicity 1
 C         1.135835         3.011571         0.234227
 C         2.011660         1.748141         0.042445
 C         3.046084         1.290535         1.021303
 O         3.588152         0.064253         0.494500
 C         2.725220        -0.126908        -0.751957
 C         2.601559         1.365215        -1.330844
 O         1.242766         1.038706        -1.874236
 C         1.244975         0.411063        -0.464715
 C         0.040877        -0.231502         0.233550
 H         0.592335         3.004147         1.177541
 H         1.780554         3.951041         0.269546
 H         0.524500         3.281873        -0.677783
 H         3.915620         1.929329         1.152715
 H         2.695229         1.048448         2.088736
 H         2.939821        -1.065134        -1.389003
 H         3.211168         2.007532        -1.897050
 H         0.481282        -0.572357         1.145478
 H        -0.687284         0.535964         0.477524
 H        -0.337591        -1.204182        -0.265831
