19
Iteration:    93charge 0 multiplicity 1
 C         1.162359         2.982461         0.190819
 C         2.077846         1.795594        -0.000421
 C         3.123138         1.382809         1.016302
 O         3.410571        -0.006843         0.634705
 C         2.739676        -0.025129        -0.728622
 C         2.555857         1.373200        -1.444589
 O         1.116192         0.924261        -1.820150
 C         1.329814         0.486255        -0.408334
 C         0.197015        -0.250197         0.189068
 H         0.649377         2.802340         1.137073
 H         1.660963         3.950743         0.262179
 H         0.376244         3.044947        -0.633859
 H         4.023453         2.028238         0.914892
 H         2.875160         1.489750         2.164414
 H         2.964336        -0.948735        -1.423295
 H         3.185319         1.945565        -2.237433
 H         0.500839        -0.909994         1.090461
 H        -0.794030         0.228461         0.375063
 H        -0.020148        -1.068813        -0.628491
