19
Iteration:   357
 C         1.307738         3.064676         0.333554
 C         2.010107         1.751236         0.101837
 C         3.149116         1.377421         1.002791
 O         3.584525         0.133993         0.412276
 C         2.694781        -0.085719        -0.652171
 C         2.521555         1.257750        -1.354755
 O         1.149770         1.025453        -1.840971
 C         1.191867         0.418037        -0.435429
 C         0.016255        -0.373457         0.086569
 H         0.624583         3.081383         1.227079
 H         2.075022         3.754983         0.496779
 H         0.712694         3.406915        -0.594092
 H         3.993382         1.985722         0.887666
 H         2.776058         1.437336         2.038339
 H         2.883592        -0.950392        -1.147825
 H         3.362739         1.756251        -1.860021
 H         0.157558        -0.465880         1.176773
 H        -0.958183         0.007207        -0.208577
 H         0.006555        -1.300358        -0.329474
