19
Iteration:  1912charge 0 multiplicity 1
 C         1.112415         2.951915         0.286461
 C         2.009268         1.799014        -0.027643
 C         3.176564         1.417396         0.927836
 O         3.442193        -0.015535         0.572834
 C         2.781601        -0.047129        -0.705394
 C         2.531930         1.311275        -1.449547
 O         1.186206         0.895329        -1.869198
 C         1.310907         0.474487        -0.327855
 C         0.162299        -0.187237         0.203603
 H         0.453289         2.694090         1.045175
 H         1.820552         3.768495         0.602404
 H         0.412616         3.373514        -0.531696
 H         4.030610         2.022306         0.924444
 H         2.775136         1.366630         2.019201
 H         2.866402        -0.937426        -1.243307
 H         3.202306         2.000751        -2.035173
 H         0.270845        -0.375473         1.346758
 H        -0.648903         0.541357        -0.027668
 H        -0.174459        -0.993399        -0.429483
