19
Iteration:  2987
 C         1.163025         3.008404         0.199898
 C         2.053543         1.814853        -0.007909
 C         3.109136         1.336593         1.081700
 O         3.498358         0.004085         0.471614
 C         2.819046        -0.069044        -0.746832
 C         2.613387         1.330901        -1.376872
 O         1.167910         0.904064        -1.851129
 C         1.214802         0.547460        -0.457079
 C         0.057949        -0.224212         0.286313
 H         0.778732         2.876173         1.134822
 H         1.540905         4.075607         0.200656
 H         0.326846         2.885488        -0.431101
 H         4.012790         2.008513         1.095500
 H         2.631153         1.237754         2.021679
 H         2.967334        -0.978791        -1.240441
 H         3.242748         1.926432        -2.038779
 H         0.691225        -0.729843         1.059286
 H        -0.767020         0.439813         0.571708
 H        -0.372797        -1.031063        -0.237868
