19
Iteration:  3957
 C         1.322227         3.048731         0.296039
 C         1.986900         1.716338         0.035164
 C         3.124800         1.368706         0.949861
 O         3.446967        -0.050985         0.621535
 C         2.689195        -0.034853        -0.656177
 C         2.525121         1.469609        -1.390555
 O         1.113565         0.995608        -1.873897
 C         1.231381         0.463393        -0.493875
 C         0.169257        -0.378560         0.141062
 H         0.576736         3.226114         0.978264
 H         1.953345         3.877261         0.525399
 H         0.814086         3.404131        -0.644623
 H         3.994159         2.012199         0.543920
 H         3.218074         1.604851         2.023910
 H         3.111844        -0.915463        -1.164953
 H         3.290850         1.999661        -1.991188
 H         0.371055        -0.853917         1.163179
 H        -0.832781         0.144819         0.305688
 H         0.018527        -1.277143        -0.458307
