19
Iteration:  2317
 C         1.252784         3.053235         0.307772
 C         2.007573         1.828048        -0.003348
 C         3.143810         1.363428         0.917555
 O         3.517543         0.058047         0.531029
 C         2.721899        -0.050996        -0.643847
 C         2.500209         1.308132        -1.434458
 O         1.193390         0.944969        -1.843766
 C         1.247319         0.382043        -0.392863
 C         0.086181        -0.306110         0.175997
 H         0.672289         3.003273         1.194210
 H         1.844386         4.012634         0.457898
 H         0.424957         3.111613        -0.514629
 H         4.018139         2.029520         0.842319
 H         2.853491         1.384299         1.947616
 H         2.791857        -1.026137        -1.143575
 H         3.208209         1.848723        -2.077565
 H         0.300044        -0.294603         1.213564
 H        -0.715048         0.397992         0.117274
 H        -0.208016        -1.271027        -0.337143
