19
Iteration:  4828charge 0 multiplicity 1
 C         1.311785         3.016961         0.207209
 C         1.871515         1.706686         0.138798
 C         3.019802         1.286196         1.107013
 O         3.603727         0.092276         0.393717
 C         2.742762         0.007975        -0.730413
 C         2.522381         1.380491        -1.330990
 O         1.218261         0.954430        -1.867841
 C         1.255137         0.390058        -0.423104
 C         0.042175        -0.253640         0.202200
 H         0.605091         3.191118         1.017362
 H         2.030431         3.904263         0.256526
 H         0.852526         3.261108        -0.810508
 H         3.852822         1.971389         1.155714
 H         2.802198         0.954344         2.204099
 H         3.152236        -0.869655        -1.349342
 H         3.169375         1.866129        -1.982621
 H         0.143754        -0.584588         1.199389
 H        -0.721616         0.523026         0.136913
 H        -0.144975        -1.201294        -0.472171
