19
Iteration:  1817charge 0 multiplicity 1
 C         1.289586         3.115027         0.244614
 C         1.936361         1.759716         0.069758
 C         3.042216         1.348404         0.945124
 O         3.452830         0.060400         0.532218
 C         2.718572        -0.038959        -0.651529
 C         2.576039         1.294665        -1.430553
 O         1.225000         0.978038        -1.864703
 C         1.233459         0.480428        -0.451835
 C         0.173715        -0.402437         0.243889
 H         1.004472         3.413335         1.296271
 H         1.853771         3.887813        -0.347754
 H         0.375392         3.037569        -0.262702
 H         3.790770         2.221508         0.901097
 H         2.731772         1.310986         1.954416
 H         2.891742        -1.037690        -1.191620
 H         3.274966         1.840758        -2.174453
 H         0.659176        -0.721595         1.132833
 H        -0.712200         0.167138         0.532409
 H        -0.275328        -1.236300        -0.335383
