19
Iteration:  4055charge 0 multiplicity 1
 C         1.169913         2.966427         0.208521
 C         1.930896         1.735833         0.058657
 C         3.058838         1.214394         1.067057
 O         3.653655         0.050753         0.418472
 C         2.800712        -0.076098        -0.674279
 C         2.508807         1.397841        -1.336562
 O         1.201633         0.949079        -1.842886
 C         1.303180         0.439881        -0.454492
 C         0.031837        -0.076785         0.192424
 H         0.748707         3.041413         1.194053
 H         1.708688         3.955604         0.123467
 H         0.273423         2.965199        -0.469198
 H         3.964492         1.912603         1.097655
 H         2.663702         0.946022         2.083123
 H         3.130251        -0.845688        -1.310355
 H         3.096384         1.943365        -2.106396
 H         0.378776        -0.553187         1.108065
 H        -0.843283         0.541137         0.468702
 H        -0.368190        -0.942191        -0.319347
