19
Iteration:  4488
 C         1.245541         3.090312         0.313934
 C         1.972882         1.775874         0.049704
 C         3.041925         1.313281         1.019342
 O         3.345845        -0.036207         0.469652
 C         2.746663         0.007595        -0.687409
 C         2.558351         1.387356        -1.360876
 O         1.245488         0.999824        -1.847332
 C         1.319784         0.403392        -0.481083
 C         0.216690        -0.344677         0.167244
 H         0.836706         3.092713         1.341117
 H         1.988437         3.919531         0.149636
 H         0.328888         3.039562        -0.406580
 H         3.954304         1.862659         0.960412
 H         2.683802         1.486831         1.992187
 H         3.075641        -0.716443        -1.364285
 H         3.081505         1.881076        -2.206491
 H         0.267103        -0.508617         1.292833
 H        -0.714072         0.345305         0.159120
 H        -0.106341        -1.240487        -0.307799
