19
Iteration:   945charge 0 multiplicity 1
 C         1.273724         3.029019         0.393865
 C         2.090222         1.816927        -0.035886
 C         3.273407         1.423000         0.880557
 O         3.300353         0.041469         0.581765
 C         2.648960        -0.004088        -0.648372
 C         2.473874         1.339197        -1.446971
 O         1.140968         0.930298        -1.812785
 C         1.276384         0.395409        -0.459399
 C         0.186450        -0.329817         0.151460
 H         0.797411         3.026270         1.445298
 H         1.740221         3.998647         0.380030
 H         0.530368         3.065798        -0.319008
 H         4.286290         1.823247         0.597520
 H         3.060249         1.644210         1.942558
 H         2.895014        -1.025312        -1.294254
 H         3.159643         1.819775        -2.062179
 H         0.498264        -1.048757         0.977704
 H        -0.588068         0.352902         0.404347
 H        -0.046299        -1.059165        -0.578192
