19
Iteration:  1938
 C         1.162484         2.977499         0.269230
 C         2.051801         1.848362         0.002074
 C         3.126558         1.418439         1.019927
 O         3.398248         0.004546         0.573668
 C         2.715814        -0.089186        -0.670937
 C         2.556657         1.391398        -1.489985
 O         1.206353         0.906626        -1.873705
 C         1.260420         0.410927        -0.494758
 C         0.181502        -0.231206         0.252936
 H         0.812734         2.718329         1.382410
 H         1.637874         4.015160         0.301096
 H         0.288789         2.972921        -0.250729
 H         4.001765         2.132400         0.842215
 H         2.981765         1.309055         2.096383
 H         3.016063        -1.073604        -1.306078
 H         3.290981         1.873329        -2.233799
 H         0.564519        -0.379499         1.157076
 H        -0.669471         0.434590         0.267592
 H        -0.184395        -1.117473        -0.301117
