19
Iteration:  2478
 C         1.139370         3.064707         0.367845
 C         2.055363         1.766062         0.007478
 C         3.242604         1.456620         0.913666
 O         3.457472         0.000052         0.466645
 C         2.694363        -0.086856        -0.613852
 C         2.562379         1.317181        -1.402798
 O         1.209433         0.934636        -1.865303
 C         1.237499         0.434021        -0.422923
 C         0.071033        -0.245264         0.155939
 H         0.435045         2.989008         1.258781
 H         1.774680         3.856610         0.442389
 H         0.379285         3.115647        -0.417785
 H         4.208536         1.954474         0.816413
 H         3.108863         1.307503         1.982453
 H         2.921551        -1.176342        -1.087245
 H         3.078615         1.961298        -2.105297
 H         0.441187        -0.369332         1.250088
 H        -0.826397         0.315276         0.207848
 H        -0.142616        -1.206737        -0.219781
