19
Iteration:  3248
 C         1.323035         3.056739         0.251401
 C         2.044523         1.759400        -0.005813
 C         3.098503         1.387575         1.056742
 O         3.543095         0.085915         0.497818
 C         2.748791        -0.070437        -0.674029
 C         2.491920         1.319541        -1.375494
 O         1.161957         0.980745        -1.803666
 C         1.200405         0.427688        -0.456411
 C         0.045533        -0.340993         0.117964
 H         0.815376         3.107126         1.192594
 H         2.090630         3.835847         0.178131
 H         0.553486         3.265377        -0.540167
 H         4.056439         1.893182         1.246357
 H         2.418389         1.200612         2.000241
 H         2.974777        -0.941752        -1.445200
 H         3.234068         1.891459        -2.007023
 H         0.259975        -0.672524         1.230703
 H        -0.861675         0.357121         0.190270
 H        -0.173609        -1.294407        -0.306921
