19
Iteration:  1323
 C         1.242968         3.041617         0.206436
 C         2.057343         1.794118        -0.007388
 C         2.972173         1.281049         1.072268
 O         3.573975         0.085633         0.439749
 C         2.716478        -0.026343        -0.684795
 C         2.520668         1.352289        -1.399169
 O         1.182283         0.869536        -1.811054
 C         1.230897         0.417050        -0.476220
 C         0.169540        -0.183152         0.298044
 H         0.753130         3.132553         1.209424
 H         1.865627         3.947108        -0.189314
 H         0.565559         3.142348        -0.727813
 H         3.824952         1.856799         1.439852
 H         2.363956         1.056409         1.997689
 H         2.833404        -0.884088        -1.382450
 H         3.111387         1.977262        -2.180071
 H         0.614761        -0.801648         1.157452
 H        -0.671183         0.347435         0.742367
 H        -0.198416        -0.996265        -0.418962
