19
Iteration:  1645charge 0 multiplicity 1
 C         1.172575         3.016701         0.247691
 C         2.039328         1.810051        -0.020068
 C         3.196309         1.388819         0.909720
 O         3.320515         0.018235         0.594360
 C         2.626911        -0.057675        -0.647956
 C         2.579115         1.345673        -1.373999
 O         1.233179         1.023655        -1.947644
 C         1.270398         0.435693        -0.402645
 C         0.218951        -0.344194         0.242630
 H         1.161968         3.040846         1.431301
 H         1.649024         3.917004        -0.122954
 H         0.173869         3.011910        -0.236642
 H         4.048758         1.987946         0.600946
 H         2.936243         1.614482         2.030031
 H         2.743896        -1.102397        -1.164190
 H         3.337750         1.812869        -1.863163
 H         0.519088        -0.659354         1.187130
 H        -0.758234         0.163318         0.260507
 H         0.160193        -1.413400        -0.119726
