19
Iteration:   353charge 0 multiplicity 1
 C         1.308082         3.062070         0.332151
 C         2.015321         1.746773         0.071110
 C         3.091156         1.366413         1.007099
 O         3.631392         0.126694         0.390687
 C         2.716038        -0.051421        -0.654115
 C         2.522922         1.242099        -1.339542
 O         1.154007         1.002456        -1.805767
 C         1.189466         0.435292        -0.410047
 C        -0.020817        -0.342730         0.082931
 H         0.685486         3.086441         1.188568
 H         2.081628         3.875801         0.444749
 H         0.777381         3.359896        -0.549246
 H         4.015719         2.113121         0.957265
 H         2.762118         1.300034         2.029569
 H         2.877216        -1.093433        -1.165852
 H         3.278321         1.872688        -1.930875
 H         0.157470        -0.495631         1.104831
 H        -0.981612        -0.003595        -0.271202
 H        -0.005726        -1.399799        -0.422975
