19
Iteration:  1140charge 0 multiplicity 1
 C         1.309084         3.101713         0.176911
 C         1.951440         1.736258         0.107513
 C         3.047925         1.355338         1.047161
 O         3.638397         0.160784         0.394910
 C         2.787383        -0.084723        -0.707480
 C         2.495921         1.308642        -1.342668
 O         1.113278         0.899390        -1.781997
 C         1.274682         0.340306        -0.394382
 C         0.015879        -0.256462         0.165545
 H         0.897514         3.302519         1.184750
 H         2.063545         3.876745        -0.144610
 H         0.547325         3.250678        -0.520346
 H         3.975334         1.936071         1.300706
 H         2.594859         1.136249         1.996314
 H         3.177512        -1.028907        -1.360247
 H         2.997791         1.913184        -2.097693
 H         0.371244        -1.024434         0.918045
 H        -0.534254         0.448049         0.758635
 H        -0.624231        -0.607099        -0.654325
