19
Iteration:  4377charge 0 multiplicity 1
 C         1.262534         3.062059         0.305051
 C         1.989045         1.756734         0.094435
 C         3.114756         1.372690         0.981208
 O         3.416367         0.027552         0.514607
 C         2.737941        -0.020266        -0.675085
 C         2.567018         1.351209        -1.311009
 O         1.217137         0.960057        -1.867958
 C         1.264722         0.382728        -0.524447
 C         0.095003        -0.300564         0.087019
 H         0.679930         3.004936         1.296571
 H         1.858273         3.904404         0.430430
 H         0.364116         3.147041        -0.348319
 H         4.007301         1.987536         0.925942
 H         2.751180         1.296928         1.982459
 H         2.894125        -0.980373        -1.287388
 H         3.166281         1.978544        -2.036672
 H         0.764874        -0.634494         0.934614
 H        -0.562866         0.517066         0.453189
 H        -0.352781        -1.100213        -0.367980
