19
Iteration:   261
 C         1.070990         2.966132         0.279574
 C         2.099068         1.866961        -0.033939
 C         3.192574         1.332533         1.015250
 O         3.334818        -0.009149         0.562879
 C         2.665422        -0.027744        -0.682211
 C         2.608865         1.327555        -1.460068
 O         1.193117         0.993414        -1.849232
 C         1.273606         0.473548        -0.465894
 C         0.268117        -0.275812         0.214024
 H         0.507158         2.794358         1.238304
 H         1.686677         3.878352         0.319610
 H         0.382765         3.141199        -0.544399
 H         4.117736         1.866274         0.969605
 H         2.837755         1.388754         2.112294
 H         2.680835        -0.890755        -1.210169
 H         3.203293         1.752018        -2.190800
 H         0.918422        -0.796293         1.073532
 H        -0.583913         0.356903         0.555213
 H        -0.263658        -1.014430        -0.326171
