19
Iteration:  3749charge 0 multiplicity 1
 C         1.302105         3.061356         0.237996
 C         2.019830         1.678376         0.057679
 C         2.997112         1.260214         1.163990
 O         3.601843         0.123511         0.394428
 C         2.774419        -0.036573        -0.664173
 C         2.530400         1.279614        -1.404605
 O         1.126888         1.017317        -1.880487
 C         1.278949         0.422455        -0.487646
 C         0.074954        -0.186815         0.193090
 H         0.998949         2.984374         1.345312
 H         1.807998         3.972093         0.137155
 H         0.356475         2.932833        -0.476841
 H         3.739195         1.866179         1.604808
 H         2.522505         0.758969         2.001246
 H         3.026070        -1.007617        -1.218549
 H         3.008127         1.881437        -2.167724
 H         0.342634        -0.747899         1.147601
 H        -0.796202         0.450629         0.461470
 H        -0.312353        -0.900730        -0.403335
