19
Iteration:  2262
 C         1.173078         3.028564         0.175933
 C         1.965288         1.753614         0.000570
 C         3.066677         1.277747         1.106730
 O         3.705966         0.121493         0.390357
 C         2.730773        -0.094010        -0.757719
 C         2.530836         1.312106        -1.336771
 O         1.199082         0.909601        -1.853871
 C         1.251452         0.403505        -0.365409
 C         0.037710        -0.133950         0.304790
 H         0.551041         3.018981         1.044020
 H         1.920853         3.931180         0.067218
 H         0.375660         3.286146        -0.734087
 H         3.792875         1.973473         1.574322
 H         2.512023         0.858482         1.941610
 H         2.949913        -1.026599        -1.419073
 H         3.227338         1.999021        -1.902286
 H         0.225197        -0.574596         1.277967
 H        -0.689914         0.620989         0.210346
 H        -0.325495        -0.976574        -0.365612
