19
Iteration:  3692
 C         1.149861         2.986263         0.318886
 C         1.958768         1.730416         0.107572
 C         3.255472         1.331128         0.921798
 O         3.483058        -0.009026         0.554928
 C         2.693811        -0.056961        -0.713534
 C         2.589174         1.388659        -1.320807
 O         1.208266         0.958719        -1.854751
 C         1.247456         0.449159        -0.536795
 C         0.076041        -0.179640         0.161107
 H         0.526610         2.938509         1.222722
 H         1.915068         3.845452         0.405185
 H         0.426931         3.214311        -0.571120
 H         4.026759         2.041978         0.713580
 H         2.991616         1.380219         1.970519
 H         2.796760        -0.848969        -1.389191
 H         3.156169         1.863407        -2.102957
 H         0.498666        -0.611568         1.109773
 H        -0.752691         0.479076         0.358845
 H        -0.213095        -1.108646        -0.358419
