19
Iteration:  3751charge 0 multiplicity 1
 C         1.299277         3.062946         0.234438
 C         2.017518         1.688647         0.059048
 C         3.008585         1.262426         1.163870
 O         3.605158         0.131401         0.411269
 C         2.772955        -0.044988        -0.689802
 C         2.508264         1.296342        -1.400215
 O         1.139744         1.010839        -1.888770
 C         1.267063         0.426520        -0.483459
 C         0.070305        -0.204695         0.214471
 H         0.945901         2.995040         1.360627
 H         1.905360         3.930813         0.064264
 H         0.382781         3.037335        -0.488795
 H         3.835388         1.821143         1.654170
 H         2.536323         0.668141         1.993467
 H         3.026306        -1.036244        -1.239272
 H         3.078716         1.894933        -2.173505
 H         0.309151        -0.731046         1.130564
 H        -0.825051         0.418209         0.445223
 H        -0.355392        -0.932619        -0.475508
