19
Iteration:  1712
 C         1.310376         3.077437         0.195132
 C         1.923855         1.715524         0.065958
 C         3.006825         1.238158         1.081156
 O         3.756504         0.224703         0.408369
 C         2.951461        -0.032526        -0.734823
 C         2.501888         1.284307        -1.377056
 O         1.104728         0.823145        -1.817794
 C         1.201854         0.391211        -0.360699
 C        -0.081006        -0.136011         0.188597
 H         0.358932         3.157058         0.867517
 H         1.920900         3.884656         0.538043
 H         0.971955         3.303368        -0.929642
 H         3.641853         2.057757         1.406851
 H         2.396884         0.761180         2.002150
 H         3.128762        -1.048413        -1.308867
 H         3.187234         1.812721        -1.949289
 H         0.068888        -0.361528         1.243296
 H        -0.911767         0.584301         0.008308
 H        -0.236932        -1.193610        -0.210045
