19
Iteration:  2455charge 0 multiplicity 1
 C         1.223449         2.951997         0.278621
 C         2.052135         1.787708        -0.013003
 C         3.129297         1.415031         0.915594
 O         3.493922         0.035290         0.563075
 C         2.723256        -0.028957        -0.705523
 C         2.533498         1.295993        -1.396392
 O         1.167997         0.943110        -1.830686
 C         1.283124         0.459724        -0.406122
 C         0.104012        -0.210945         0.185822
 H         0.592220         2.607040         1.215394
 H         1.792188         3.842297         0.548038
 H         0.355938         2.966513        -0.347606
 H         4.012729         2.073771         0.829770
 H         3.096995         1.178057         1.998055
 H         2.805014        -1.042901        -1.337331
 H         3.035164         1.840012        -2.197850
 H         0.183612        -0.603725         1.292209
 H        -0.666356         0.553562         0.218353
 H        -0.299662        -0.933066        -0.427309
