19
Iteration:   938
 C         1.300363         3.012561         0.363153
 C         2.086574         1.787233        -0.025564
 C         3.224748         1.430075         0.866510
 O         3.307942         0.023894         0.601471
 C         2.673433        -0.018966        -0.673449
 C         2.496266         1.349616        -1.447199
 O         1.104532         0.925299        -1.784562
 C         1.290349         0.428252        -0.405242
 C         0.226337        -0.324137         0.112589
 H         0.872370         2.943234         1.374360
 H         1.907396         3.936548         0.367673
 H         0.416651         3.195543        -0.341501
 H         4.184963         1.845769         0.712793
 H         2.767039         1.639161         1.910672
 H         2.837880        -0.882181        -1.181949
 H         2.996477         1.904428        -2.299690
 H         0.771649        -0.944769         0.954261
 H        -0.640339         0.303515         0.496829
 H        -0.217367        -0.925561        -0.730666
