19
Iteration:  3926charge 0 multiplicity 1
 C         1.224631         3.049609         0.286048
 C         2.068163         1.821373         0.003293
 C         3.070763         1.351343         1.046527
 O         3.551065         0.023821         0.413739
 C         2.682622        -0.102397        -0.713633
 C         2.564804         1.374536        -1.339283
 O         1.196162         0.940509        -1.798127
 C         1.311309         0.412413        -0.431539
 C         0.045649        -0.244242         0.172862
 H         0.477789         2.864534         1.193868
 H         1.754414         3.966132         0.284136
 H         0.535927         3.096818        -0.594409
 H         3.894899         2.011705         1.222027
 H         2.575441         1.217157         1.999091
 H         2.907380        -0.939511        -1.349216
 H         3.293529         1.997631        -1.981605
 H         0.147748        -0.737273         1.135683
 H        -0.816909         0.477055         0.250380
 H        -0.253318        -1.155007        -0.484044
