19
Iteration:  3547charge 0 multiplicity 1
 C         1.135483         2.939574         0.319834
 C         2.063160         1.798453         0.034102
 C         3.217015         1.392419         0.955839
 O         3.522259        -0.025917         0.528298
 C         2.723067        -0.041400        -0.623960
 C         2.561030         1.355469        -1.361051
 O         1.172013         0.986799        -1.934231
 C         1.239444         0.455038        -0.405194
 C         0.055325        -0.214652         0.139887
 H         0.500423         2.864492         1.213819
 H         1.915380         3.874716         0.282320
 H         0.425712         3.026554        -0.463651
 H         4.127071         1.939333         0.788518
 H         2.833582         1.368172         1.968284
 H         2.851744        -1.021915        -1.167023
 H         3.249281         1.807837        -2.121718
 H         0.353696        -0.635883         1.071504
 H        -0.766985         0.485909         0.450692
 H        -0.449177        -1.120586        -0.424082
