19
Iteration:   970charge 0 multiplicity 1
 C         1.176584         3.064986         0.334486
 C         1.973652         1.729031         0.024312
 C         3.252170         1.394023         0.861096
 O         3.554645        -0.002214         0.479773
 C         2.691671        -0.036862        -0.666369
 C         2.555639         1.314391        -1.368737
 O         1.231648         0.973246        -1.840581
 C         1.192349         0.440626        -0.396788
 C        -0.003674        -0.294724         0.183746
 H         0.782846         3.095108         1.368459
 H         1.773255         3.959308         0.299850
 H         0.356580         3.203046        -0.346670
 H         4.106833         1.960366         0.589382
 H         3.018802         1.567162         1.976485
 H         2.788065        -0.907217        -1.273256
 H         3.183611         1.944358        -1.985958
 H         0.384949        -0.562965         1.256438
 H        -0.926803         0.337723         0.246245
 H        -0.027633        -1.294363        -0.203429
