19
Iteration:  4132charge 0 multiplicity 1
 C         1.337549         3.115228         0.308398
 C         1.919940         1.767978         0.060479
 C         3.095424         1.285541         1.036576
 O         3.490811         0.050824         0.467666
 C         2.743132         0.036447        -0.778122
 C         2.511279         1.371039        -1.354165
 O         1.223758         0.883135        -1.798477
 C         1.262678         0.421785        -0.488029
 C         0.068713        -0.356484         0.183416
 H         0.566246         3.339953         1.091472
 H         2.133425         3.977150         0.395516
 H         0.895801         3.519493        -0.651043
 H         3.767556         2.216458         0.973680
 H         2.651447         1.202374         2.063415
 H         2.978034        -0.821433        -1.284502
 H         3.214934         1.927170        -2.052579
 H         0.274624        -0.751245         1.153758
 H        -0.897863         0.164732         0.242362
 H        -0.200635        -1.241885        -0.442632
