19
Iteration:  4053
 C         1.169445         2.971100         0.203982
 C         1.929920         1.729006         0.062728
 C         3.057620         1.219422         1.082651
 O         3.654012         0.047139         0.403621
 C         2.814735        -0.077349        -0.680731
 C         2.503619         1.397302        -1.338584
 O         1.207958         0.944084        -1.841085
 C         1.282079         0.448889        -0.455912
 C         0.030807        -0.087832         0.190905
 H         0.778166         3.060213         1.197989
 H         1.791440         3.982258         0.113017
 H         0.243967         2.955632        -0.490940
 H         3.912561         1.942532         1.174470
 H         2.648249         0.994910         2.094570
 H         3.166860        -0.871675        -1.375266
 H         3.087065         1.938166        -2.026434
 H         0.380213        -0.573387         1.158883
 H        -0.810613         0.593346         0.467172
 H        -0.360839        -0.909687        -0.280806
