19
Iteration:  1260
 C         1.300421         3.073569         0.251366
 C         1.979571         1.807394         0.054198
 C         3.168125         1.374499         0.979140
 O         3.605658         0.118982         0.433143
 C         2.686108        -0.056548        -0.612994
 C         2.473156         1.261416        -1.377272
 O         1.153234         0.888989        -1.798330
 C         1.228974         0.453794        -0.355760
 C         0.046612        -0.304084         0.098594
 H         0.859500         2.953013         1.273821
 H         1.945804         3.986774         0.136706
 H         0.508917         3.262235        -0.390254
 H         3.998321         2.059417         0.854852
 H         2.835842         1.348320         2.101241
 H         2.899552        -1.035671        -1.260077
 H         3.115260         1.802225        -2.068357
 H        -0.045257        -0.352595         1.270934
 H        -0.950350        -0.012407        -0.276330
 H         0.176716        -1.278077        -0.426302
