19
Iteration:   826charge 0 multiplicity 1
 C         1.153401         3.005671         0.419485
 C         1.987837         1.745138        -0.005017
 C         3.230209         1.351499         0.926685
 O         3.522425        -0.013643         0.455670
 C         2.639372        -0.031489        -0.668002
 C         2.544151         1.289932        -1.408269
 O         1.247866         0.953776        -1.897355
 C         1.204141         0.530044        -0.421585
 C         0.101877        -0.202558         0.190009
 H         0.701204         2.878390         1.507773
 H         1.722610         3.914797         0.474513
 H         0.385225         3.107762        -0.264530
 H         4.018385         1.948506         0.616656
 H         2.918843         1.577717         2.027147
 H         2.793629        -1.030216        -1.289039
 H         3.181593         1.905307        -1.950242
 H         0.466029        -0.497545         1.311034
 H        -0.866921         0.295466         0.179650
 H         0.104666        -1.221939        -0.135171
