19
Iteration:  1287charge 0 multiplicity 1
 C         1.406775         3.143609         0.225841
 C         1.929116         1.721693         0.083542
 C         2.975573         1.303706         1.097719
 O         3.668130         0.241360         0.378312
 C         2.818201        -0.049798        -0.729635
 C         2.471958         1.256275        -1.387817
 O         1.148289         0.868477        -1.788788
 C         1.250811         0.343369        -0.423804
 C        -0.047422        -0.280701         0.200801
 H         1.154377         3.488884         1.217963
 H         2.240693         3.779852        -0.035432
 H         0.396279         3.269024        -0.382847
 H         3.811962         2.073910         1.362211
 H         2.559047         0.938052         1.976387
 H         3.164000        -0.876733        -1.243727
 H         3.039815         1.864680        -2.166885
 H         0.130400        -0.513581         1.191114
 H        -0.901833         0.367831        -0.009167
 H        -0.234657        -1.227419        -0.324511
