19
Iteration:  4680charge 0 multiplicity 1
 C         1.311577         3.081777         0.220191
 C         2.031501         1.728043         0.068479
 C         2.991839         1.301223         1.107989
 O         3.555000         0.087380         0.416659
 C         2.732629        -0.030648        -0.703482
 C         2.506312         1.336653        -1.389297
 O         1.158176         0.997341        -1.804823
 C         1.265369         0.468217        -0.332540
 C         0.110597        -0.372590         0.078833
 H         0.616761         3.243636         1.120183
 H         2.028477         3.979104         0.310504
 H         0.642381         3.180414        -0.633069
 H         3.913865         1.894521         1.349060
 H         2.417430         1.049297         1.960625
 H         2.910436        -1.035313        -1.223951
 H         3.304742         1.792337        -2.017955
 H         0.167585        -0.560386         1.174235
 H        -0.708024         0.365444        -0.018849
 H        -0.020360        -1.233883        -0.593541
