19
Iteration:  2438
 C         1.193451         2.964543         0.270844
 C         2.018087         1.744054         0.008069
 C         3.096907         1.356983         1.033759
 O         3.558929         0.064305         0.461920
 C         2.732649        -0.129916        -0.668648
 C         2.491374         1.364096        -1.453132
 O         1.151815         0.927140        -1.795654
 C         1.330130         0.413785        -0.436987
 C         0.098214        -0.143468         0.208337
 H         0.721282         3.013493         1.199391
 H         1.872602         3.866085         0.282791
 H         0.538591         3.238306        -0.626787
 H         3.982945         2.030834         1.018078
 H         2.559036         1.368087         1.963625
 H         3.004320        -1.027191        -1.155516
 H         3.180309         1.957869        -2.092385
 H         0.369558        -0.597847         1.094572
 H        -0.717056         0.566164         0.477561
 H        -0.330613        -0.944047        -0.550278
