19
Iteration:  2431
 C         1.198803         3.024103         0.233946
 C         2.040434         1.777673         0.034266
 C         3.056201         1.298460         1.015959
 O         3.616358         0.116518         0.503974
 C         2.714957        -0.113030        -0.750262
 C         2.513937         1.361927        -1.409731
 O         1.149305         0.904689        -1.800591
 C         1.287934         0.406641        -0.477760
 C         0.082910        -0.162090         0.240345
 H         0.502468         3.177271         1.162278
 H         2.089522         3.810368         0.275934
 H         0.463303         3.091047        -0.514015
 H         3.933279         1.916283         1.199401
 H         2.701592         1.075734         2.080671
 H         3.006646        -0.971228        -1.374618
 H         3.235026         1.689534        -2.175404
 H         0.300677        -0.750868         1.200632
 H        -0.763702         0.525750         0.501366
 H        -0.377462        -0.845866        -0.434969
