19
Iteration:  3796
 C         1.280737         3.148673         0.235293
 C         2.019907         1.754975         0.080814
 C         3.163029         1.301444         1.072130
 O         3.471294         0.027545         0.512338
 C         2.692632        -0.050514        -0.745232
 C         2.471066         1.349962        -1.356303
 O         1.114411         0.982543        -1.839925
 C         1.276774         0.429433        -0.410327
 C         0.149057        -0.373502         0.092728
 H         0.571650         3.309264         1.131771
 H         2.139133         3.769024         0.557670
 H         0.954830         3.496760        -0.728822
 H         4.010980         2.048359         1.022979
 H         2.747681         1.406428         2.107600
 H         3.025513        -0.933813        -1.298341
 H         3.036643         2.003696        -2.092640
 H         0.434825        -0.698696         1.045156
 H        -0.773362         0.190250         0.217162
 H        -0.083075        -1.300970        -0.530825
