19
Iteration:  2857charge 0 multiplicity 1
 C         1.160850         3.022367         0.190910
 C         1.967979         1.768610         0.044371
 C         3.106370         1.301194         1.004251
 O         3.496745         0.040406         0.502872
 C         2.670790        -0.029835        -0.750620
 C         2.612180         1.312524        -1.369228
 O         1.183371         0.973632        -1.856813
 C         1.303212         0.411990        -0.428093
 C         0.147798        -0.229001         0.258809
 H         0.736322         3.091720         1.274772
 H         1.860878         3.983654         0.073719
 H         0.396289         3.224791        -0.518623
 H         3.966364         2.066544         0.869313
 H         2.780153         1.276948         2.078499
 H         2.783697        -0.916674        -1.241894
 H         3.292604         1.824199        -1.993712
 H         0.529275        -0.451159         1.326605
 H        -0.802199         0.304839         0.505165
 H         0.024039        -1.146016        -0.300929
