19
Iteration:  3405charge 0 multiplicity 1
 C         1.241241         3.020457         0.277270
 C         2.075837         1.824299         0.003286
 C         3.111998         1.390044         0.996829
 O         3.480069        -0.003514         0.473557
 C         2.669252        -0.063915        -0.650244
 C         2.556032         1.300505        -1.394257
 O         1.199658         1.004978        -1.825549
 C         1.253253         0.466278        -0.387362
 C         0.086697        -0.306268         0.171812
 H         0.683216         2.950296         1.202023
 H         1.772140         4.043800         0.169156
 H         0.430741         2.954665        -0.397507
 H         4.062737         2.017164         0.909896
 H         2.833500         1.228784         2.128992
 H         3.052895        -0.814493        -1.280689
 H         3.076992         1.774212        -2.218001
 H         0.398724        -0.740456         1.092143
 H        -0.835871         0.278953         0.294435
 H        -0.200929        -1.110927        -0.656080
