19
Iteration:  1751charge 0 multiplicity 1
 C         1.214600         3.010541         0.193973
 C         2.025032         1.737766         0.031395
 C         3.057567         1.356981         1.003842
 O         3.607352         0.133964         0.455989
 C         2.710535        -0.027557        -0.666954
 C         2.557361         1.302160        -1.327969
 O         1.125217         0.895919        -1.840310
 C         1.328343         0.372471        -0.385811
 C         0.076535        -0.202815         0.191294
 H         0.421008         2.826395         0.920465
 H         1.796728         3.915694         0.475938
 H         0.720415         3.121624        -0.705709
 H         3.916965         2.051648         1.220335
 H         2.632743         1.114948         1.914389
 H         2.923958        -0.931877        -1.183705
 H         3.239248         1.759890        -2.124536
 H         0.138812        -0.572213         1.212625
 H        -0.621379         0.640008         0.280971
 H        -0.443144        -0.819859        -0.520551
