19
Iteration:  4726charge 0 multiplicity 1
 C         1.325680         3.074205         0.256150
 C         1.966808         1.717173         0.125768
 C         3.034852         1.344111         1.102729
 O         3.545295         0.098578         0.424135
 C         2.726605        -0.050721        -0.683316
 C         2.525389         1.317083        -1.337880
 O         1.225099         0.977438        -1.898332
 C         1.294901         0.394033        -0.452713
 C         0.012452        -0.315695         0.148401
 H         0.586942         3.342184         1.132150
 H         2.036443         3.878476         0.374836
 H         0.546903         3.305091        -0.606208
 H         3.830917         2.141303         1.000212
 H         2.863644         0.933498         2.085750
 H         2.932548        -0.905214        -1.270626
 H         3.111269         2.041579        -2.062688
 H         0.244904        -0.859434         1.184256
 H        -0.894598         0.330295         0.270645
 H        -0.141578        -1.007303        -0.613894
