19
Iteration:  3962
 C         1.333235         3.086020         0.271863
 C         2.016646         1.733272         0.041948
 C         3.143584         1.406159         0.926866
 O         3.434990        -0.058369         0.619277
 C         2.687356        -0.060498        -0.667206
 C         2.522400         1.491683        -1.368073
 O         1.121810         0.988749        -1.883242
 C         1.219139         0.443665        -0.466739
 C         0.151114        -0.407915         0.149442
 H         0.503155         3.124476         1.157941
 H         2.013547         3.934615         0.628715
 H         0.833194         3.373769        -0.632750
 H         3.971647         1.957122         0.553062
 H         2.954758         1.551156         2.005436
 H         2.952969        -1.001909        -1.170814
 H         3.297045         2.044374        -1.946135
 H         0.560935        -0.719484         1.091448
 H        -0.812041         0.031816         0.255233
 H         0.006897        -1.312291        -0.555090
