19
Iteration:  4103charge 0 multiplicity 1
 C         1.209282         2.982113         0.370321
 C         2.017065         1.796552        -0.001201
 C         3.201423         1.344817         0.926504
 O         3.466390         0.038606         0.564552
 C         2.681224        -0.058761        -0.664440
 C         2.567059         1.339958        -1.416293
 O         1.180482         0.987771        -1.845822
 C         1.269568         0.482265        -0.479941
 C         0.113334        -0.307578         0.145290
 H         0.473158         2.803435         1.196962
 H         1.711505         3.827043         0.677632
 H         0.684716         3.277568        -0.495017
 H         3.991064         2.101500         0.777908
 H         2.781769         1.470511         1.930895
 H         2.858312        -1.061766        -1.138543
 H         3.307025         1.865939        -2.097200
 H         0.246873        -0.618251         1.175321
 H        -0.737620         0.367454         0.163840
 H        -0.291474        -1.226862        -0.436394
