19
Iteration:  3778charge 0 multiplicity 1
 C         1.356639         3.169203         0.231820
 C         1.932248         1.732241         0.087481
 C         2.962732         1.303102         1.014417
 O         3.554403         0.012342         0.374115
 C         2.748306         0.008318        -0.693941
 C         2.542146         1.395729        -1.287781
 O         1.195401         0.906137        -1.778255
 C         1.259512         0.410712        -0.430951
 C         0.099599        -0.308346         0.165577
 H         0.647113         3.101340         0.990224
 H         2.139574         4.036057         0.218320
 H         0.737878         3.347482        -0.632497
 H         3.864584         1.995956         1.070176
 H         2.699546         0.857733         2.020290
 H         2.840857        -0.773900        -1.388036
 H         3.102899         2.016691        -1.972737
 H         0.344244        -0.770576         1.165964
 H        -0.810167         0.285447         0.316955
 H        -0.295025        -1.145018        -0.542174
