19
Iteration:  2240
 C         1.240824         2.985396         0.184038
 C         2.023593         1.762611         0.071491
 C         3.012232         1.311264         1.049952
 O         3.543179         0.056660         0.421464
 C         2.763099        -0.043611        -0.644264
 C         2.528085         1.378073        -1.432574
 O         1.177987         0.926217        -1.809671
 C         1.272262         0.429042        -0.468859
 C         0.101099        -0.185835         0.292780
 H         0.592482         2.947973         1.051822
 H         1.855282         3.962011         0.129108
 H         0.421060         3.027080        -0.711566
 H         3.860362         2.031583         1.096181
 H         2.676544         1.149518         2.076638
 H         3.146955        -0.913899        -1.298703
 H         3.193534         1.791936        -2.254125
 H         0.478238        -0.673266         1.208322
 H        -0.696834         0.500227         0.438932
 H        -0.278324        -1.012140        -0.337155
