19
Iteration:  1860
 C         1.313371         3.084261         0.153933
 C         1.990742         1.761305         0.067301
 C         2.952466         1.226940         1.117313
 O         3.679880         0.196345         0.384638
 C         2.795253        -0.007228        -0.683793
 C         2.498335         1.316267        -1.406210
 O         1.138898         0.863883        -1.744578
 C         1.261971         0.382027        -0.330319
 C         0.023685        -0.254494         0.170669
 H         0.533508         3.295546         0.977521
 H         2.108440         3.954131         0.090844
 H         0.858643         3.248567        -0.852754
 H         3.807374         1.975624         1.200875
 H         2.457228         0.937559         2.124932
 H         2.975973        -0.947903        -1.341693
 H         3.078052         1.846409        -2.288576
 H         0.029632        -0.635678         1.141400
 H        -0.740941         0.514485         0.008782
 H        -0.152433        -1.081912        -0.543499
