19
Iteration:  3408
 C         1.254327         3.047729         0.297854
 C         2.058550         1.829896        -0.004835
 C         3.131581         1.384833         0.967993
 O         3.443857        -0.001959         0.469595
 C         2.671983        -0.071575        -0.640397
 C         2.580411         1.317247        -1.362497
 O         1.197243         0.997268        -1.819350
 C         1.282020         0.469392        -0.404018
 C         0.088084        -0.320891         0.186210
 H         0.600722         2.972282         1.218727
 H         1.720886         3.980547         0.077298
 H         0.358490         2.899538        -0.482440
 H         4.067566         2.027263         0.959176
 H         2.792261         1.180677         1.993305
 H         2.940356        -0.894448        -1.346674
 H         3.092167         1.842622        -2.234567
 H         0.360676        -0.808269         1.115118
 H        -0.795170         0.337205         0.276147
 H        -0.116334        -1.158385        -0.641013
