19
Iteration:   908charge 0 multiplicity 1
 C         1.316436         3.161538         0.251276
 C         2.010612         1.770845         0.058113
 C         3.059708         1.298503         1.019523
 O         3.549613         0.074404         0.422792
 C         2.680140        -0.029952        -0.695580
 C         2.513862         1.298412        -1.377480
 O         1.143179         0.983663        -1.866742
 C         1.250028         0.397483        -0.407770
 C         0.133363        -0.373025         0.250658
 H         0.722418         3.175322         1.122562
 H         2.122725         3.968012         0.194655
 H         0.565172         3.352135        -0.656120
 H         3.944136         1.982419         1.281925
 H         2.533079         1.127595         1.950371
 H         2.913532        -0.892481        -1.226908
 H         3.118962         1.822245        -2.222156
 H         0.576757        -0.999861         0.907714
 H        -0.508520         0.255770         0.910131
 H        -0.562118        -0.825502        -0.528145
