19
Iteration:  4632charge 0 multiplicity 1
 C         1.157446         2.985833         0.310921
 C         2.000540         1.737229         0.017982
 C         3.060401         1.303091         1.014767
 O         3.391262         0.007011         0.536527
 C         2.723247        -0.043770        -0.750983
 C         2.584195         1.456382        -1.423507
 O         1.257530         0.975569        -1.874080
 C         1.309209         0.389088        -0.422932
 C         0.170196        -0.208137         0.203219
 H         0.748646         2.920215         1.299443
 H         1.872655         3.869708         0.434837
 H         0.245010         3.047240        -0.318837
 H         4.028709         1.846425         0.966097
 H         2.870038         1.279967         2.154592
 H         2.913851        -0.885844        -1.397733
 H         3.187094         1.840750        -2.226857
 H         0.420799        -0.359569         1.245868
 H        -0.624359         0.548500         0.226940
 H        -0.027442        -1.086408        -0.560457
