19
Iteration:  2800charge 0 multiplicity 1
 C         1.255676         3.048581         0.239460
 C         2.042795         1.734318         0.045167
 C         2.955425         1.346119         1.053276
 O         3.612732         0.141638         0.379286
 C         2.804071        -0.109526        -0.675925
 C         2.551108         1.288008        -1.419174
 O         1.116336         0.894176        -1.752342
 C         1.317997         0.412711        -0.451749
 C         0.060415        -0.155371         0.201089
 H         0.647182         3.069462         1.133390
 H         1.976370         3.937368         0.412075
 H         0.507584         3.092699        -0.635916
 H         3.833354         2.073339         1.242320
 H         2.492556         1.007966         1.994866
 H         2.985636        -0.999953        -1.134885
 H         3.015444         1.899754        -2.206762
 H         0.333769        -0.936147         0.970865
 H        -0.775185         0.481296         0.598700
 H        -0.444491        -0.795897        -0.495758
