19
Iteration:  1424charge 0 multiplicity 1
 C         1.380650         3.032287         0.218793
 C         1.960533         1.728932         0.030255
 C         3.025115         1.303894         1.116061
 O         3.707192         0.287288         0.375719
 C         2.698831        -0.096563        -0.635226
 C         2.549714         1.316696        -1.396297
 O         1.096048         0.848085        -1.865657
 C         1.197524         0.417247        -0.387151
 C         0.023434        -0.239352         0.162158
 H         0.896334         3.109580         1.321808
 H         2.297939         3.723654         0.214153
 H         0.633968         3.260270        -0.452859
 H         3.661249         2.076177         1.443874
 H         2.435573         0.833512         2.039569
 H         3.079613        -0.967353        -1.212124
 H         3.331448         1.624503        -1.978455
 H         0.060301        -0.410017         1.297968
 H        -0.911038         0.333937         0.045851
 H        -0.283029        -1.122866        -0.373189
