19
Iteration:  1962charge 0 multiplicity 1
 C         1.245534         3.057375         0.221749
 C         1.959194         1.756059         0.029730
 C         2.994711         1.290734         0.932348
 O         3.547118         0.104697         0.481831
 C         2.721977        -0.088375        -0.653840
 C         2.550562         1.357224        -1.369094
 O         1.250980         0.984677        -1.874763
 C         1.230774         0.394070        -0.405007
 C         0.116979        -0.253541         0.281458
 H         0.853400         3.301102         1.299121
 H         1.802314         3.863814        -0.152195
 H         0.351591         2.948376        -0.395938
 H         3.811387         2.122125         1.006985
 H         2.630836         1.103491         1.913919
 H         3.030523        -0.964340        -1.242692
 H         3.305351         1.746172        -1.990351
 H         0.566672        -0.688414         1.133861
 H        -0.821985         0.231391         0.489535
 H        -0.054626        -1.072781        -0.406442
