19
Iteration:  2996
 C         1.107703         3.007180         0.239073
 C         2.063596         1.833897         0.037754
 C         3.108200         1.355062         1.005203
 O         3.484801         0.022201         0.502068
 C         2.711182        -0.060167        -0.741599
 C         2.601486         1.303426        -1.391103
 O         1.260800         0.989114        -1.868755
 C         1.231780         0.421108        -0.488936
 C         0.075657        -0.250920         0.317953
 H         0.711066         2.996734         1.208998
 H         1.725933         3.926712         0.099073
 H         0.332338         2.972817        -0.606931
 H         3.990046         1.956320         0.953117
 H         2.796323         1.236661         2.022509
 H         3.031666        -0.810082        -1.352934
 H         3.324838         1.617078        -2.151927
 H         0.495176        -0.697075         1.270170
 H        -0.684960         0.439655         0.759470
 H        -0.365392        -0.953250        -0.259310
