19
Iteration:   423charge 0 multiplicity 1
 C         1.240618         2.990710         0.266904
 C         2.014688         1.733316         0.052061
 C         2.974430         1.295569         1.089931
 O         3.509955         0.049993         0.416886
 C         2.718180        -0.072778        -0.762461
 C         2.567969         1.331398        -1.430527
 O         1.199850         1.060567        -1.888373
 C         1.257915         0.489937        -0.452077
 C         0.167598        -0.257746         0.306772
 H         0.701818         2.977629         1.246678
 H         1.803231         3.873557         0.184081
 H         0.471755         3.034732        -0.536344
 H         3.884927         1.896057         1.369978
 H         2.456870         0.970242         2.009598
 H         3.023035        -0.926523        -1.290622
 H         3.249966         1.780909        -2.151584
 H         0.785407        -0.716023         1.045400
 H        -0.566112         0.400940         0.746258
 H        -0.383700        -0.999456        -0.117019
