19
Iteration:  1649charge 0 multiplicity 1
 C         1.179789         3.030310         0.264314
 C         2.024233         1.785933        -0.053455
 C         3.187171         1.395508         0.934173
 O         3.351440         0.015994         0.586214
 C         2.608693        -0.064833        -0.629896
 C         2.560800         1.360241        -1.371259
 O         1.245915         1.022417        -1.931442
 C         1.274163         0.445290        -0.433703
 C         0.193678        -0.343714         0.233127
 H         1.142417         2.939894         1.285266
 H         1.588692         3.977579        -0.099542
 H         0.088917         3.083593        -0.226098
 H         4.094568         1.913844         0.605189
 H         3.025175         1.547998         2.004034
 H         2.745241        -1.076640        -1.055678
 H         3.480774         1.771417        -1.975371
 H         0.578579        -0.581203         1.293549
 H        -0.800989         0.071281         0.278592
 H         0.230542        -1.382164        -0.090735
