19
Iteration:   980
 C         1.217738         3.020088         0.306976
 C         1.949714         1.748802         0.045444
 C         3.167366         1.360807         0.916947
 O         3.601173         0.047368         0.406349
 C         2.699812        -0.075926        -0.659975
 C         2.489163         1.333962        -1.337613
 O         1.197638         0.949984        -1.813927
 C         1.250347         0.449391        -0.412629
 C         0.065432        -0.222076         0.196991
 H         0.680946         2.990106         1.290744
 H         1.904394         3.795609         0.106071
 H         0.497637         3.077713        -0.438065
 H         3.929817         2.121916         0.756710
 H         3.044662         1.210189         2.055267
 H         2.889365        -1.007110        -1.275937
 H         3.268051         1.798169        -1.861953
 H         0.092140        -0.314498         1.353328
 H        -0.913366         0.277783         0.002432
 H        -0.165901        -1.107760        -0.324300
