19
Iteration:   499
 C         1.238564         3.012525         0.394089
 C         2.023432         1.767137         0.059362
 C         3.166288         1.438669         0.908741
 O         3.557055         0.067419         0.442369
 C         2.676545        -0.106218        -0.640942
 C         2.530500         1.277285        -1.363849
 O         1.204005         1.005015        -1.773816
 C         1.225007         0.403792        -0.456651
 C         0.033264        -0.275625         0.075824
 H         0.690473         2.945078         1.369294
 H         1.885764         3.833478         0.473169
 H         0.519495         3.243591        -0.379890
 H         4.094903         2.114168         0.720559
 H         2.900188         1.394079         1.938555
 H         2.853275        -1.045171        -1.208881
 H         3.176522         1.796272        -2.066447
 H         0.309013        -1.049765         0.831136
 H        -0.755534         0.383127         0.473226
 H        -0.490928        -0.802920        -0.746744
