19
Iteration:  1781charge 0 multiplicity 1
 C         1.184867         3.030889         0.267831
 C         2.040939         1.805405        -0.002516
 C         3.151259         1.382889         0.887732
 O         3.378548        -0.024095         0.636266
 C         2.737393        -0.034817        -0.643273
 C         2.570907         1.379776        -1.443725
 O         1.187055         0.928152        -1.864699
 C         1.295917         0.476097        -0.451603
 C         0.164187        -0.293330         0.202616
 H         0.813671         3.059565         1.247008
 H         1.578228         4.137947         0.138158
 H         0.246710         2.820590        -0.481274
 H         4.087896         1.924875         0.791938
 H         2.731906         1.389476         2.006555
 H         2.862807        -0.931462        -1.068277
 H         3.098806         1.890211        -2.335347
 H         0.675450        -0.729311         1.133469
 H        -0.657515         0.286707         0.613157
 H        -0.153516        -1.096837        -0.375845
