19
Iteration:  4420charge 0 multiplicity 1
 C         1.219065         2.982000         0.300709
 C         2.061457         1.793040         0.064805
 C         3.049181         1.276405         1.093473
 O         3.657173         0.112850         0.412060
 C         2.750377        -0.061846        -0.649722
 C         2.491672         1.307789        -1.368781
 O         1.194019         0.927068        -1.791818
 C         1.205147         0.459482        -0.477951
 C         0.055123        -0.165852         0.063505
 H         0.271904         2.866431         0.952748
 H         1.731636         3.828243         0.633526
 H         0.692809         3.107113        -0.692296
 H         3.819501         1.962908         1.363860
 H         2.677367         0.903669         2.001276
 H         3.050597        -0.996490        -1.271300
 H         3.214810         1.760412        -2.107084
 H         0.122487        -0.678285         1.057412
 H        -0.754460         0.580728         0.234341
 H        -0.340426        -0.881933        -0.591095
