19
Iteration:   327charge 0 multiplicity 1
 C         1.281751         3.085334         0.250949
 C         2.024700         1.771517         0.071216
 C         3.045318         1.188937         1.116296
 O         3.698500         0.171467         0.367686
 C         2.807374         0.020228        -0.711325
 C         2.436202         1.353558        -1.390976
 O         1.102797         0.801273        -1.744286
 C         1.318089         0.382878        -0.337941
 C        -0.022842        -0.181301         0.047198
 H         0.848212         3.270876         1.283566
 H         2.073463         3.891261         0.125258
 H         0.552744         3.290109        -0.556320
 H         3.849002         1.747597         1.535732
 H         2.354353         0.840511         2.006500
 H         3.064412        -0.834888        -1.298870
 H         3.020812         1.896864        -2.073274
 H        -0.156007        -0.523872         1.215015
 H        -0.763950         0.619706        -0.315435
 H        -0.262725        -1.038096        -0.621805
