19
Iteration:  2715
 C         1.279556         3.038517         0.200727
 C         2.063817         1.784681         0.083408
 C         3.105267         1.291580         1.044199
 O         3.485192         0.104541         0.475472
 C         2.682328        -0.017281        -0.705266
 C         2.539504         1.319374        -1.418050
 O         1.166025         0.940721        -1.813930
 C         1.231535         0.471690        -0.463856
 C         0.127688        -0.345612         0.214915
 H         0.822574         3.155674         1.253454
 H         1.981581         3.984474         0.181616
 H         0.528661         3.137647        -0.516752
 H         3.941661         1.997608         1.112923
 H         2.550344         1.107634         1.971503
 H         2.801354        -0.899286        -1.298003
 H         3.000682         1.822249        -2.221708
 H         0.468582        -0.252717         1.323281
 H        -0.873468         0.185448         0.198420
 H         0.083062        -1.297975        -0.245244
