19
Iteration:  3634charge 0 multiplicity 1
 C         1.373832         3.167218         0.203145
 C         1.972475         1.785890         0.082579
 C         2.957353         1.202369         1.070333
 O         3.617048         0.105529         0.414644
 C         2.707041        -0.070592        -0.720391
 C         2.483544         1.332940        -1.305713
 O         1.132335         0.925315        -1.843424
 C         1.284175         0.465560        -0.370784
 C         0.129323        -0.331648         0.163024
 H         0.727719         3.256375         1.074443
 H         2.133279         4.085188         0.493061
 H         0.872726         3.459621        -0.673681
 H         3.715570         1.971820         1.221678
 H         2.560813         0.908544         2.038742
 H         2.751235        -1.001459        -1.362230
 H         2.971577         1.883543        -2.154252
 H         0.349087        -0.605316         1.160354
 H        -0.824909         0.240700         0.091944
 H        -0.057077        -1.134154        -0.676265
