19
Iteration:  4652charge 0 multiplicity 1
 C         1.254925         3.042799         0.293139
 C         1.984174         1.709786         0.035283
 C         3.043884         1.355888         1.020245
 O         3.476007        -0.041739         0.465739
 C         2.800721        -0.053043        -0.677126
 C         2.571578         1.416720        -1.301963
 O         1.195014         1.000210        -1.903096
 C         1.235946         0.460577        -0.529758
 C         0.091622        -0.314186         0.194726
 H         0.626681         3.116328         1.166900
 H         1.799474         3.925119         0.245154
 H         0.357824         3.197246        -0.430236
 H         3.990290         1.906671         1.006758
 H         2.809877         1.397824         2.155140
 H         3.114267        -0.916855        -1.167786
 H         3.321143         2.058066        -1.848301
 H         0.504099        -0.282950         1.245315
 H        -0.832580         0.273774         0.309255
 H        -0.142185        -1.257560        -0.287882
