19
Iteration:  1842
 C         1.330722         3.141119         0.102169
 C         2.012438         1.782626         0.056660
 C         3.044802         1.316868         1.131898
 O         3.547373         0.115419         0.438604
 C         2.779520        -0.026095        -0.708606
 C         2.474951         1.347696        -1.377808
 O         1.099638         0.846825        -1.773956
 C         1.328973         0.392295        -0.377229
 C         0.107384        -0.286280         0.148167
 H         0.926119         3.108570         1.178378
 H         2.033191         3.878471        -0.057100
 H         0.443566         3.251351        -0.477310
 H         3.715734         2.054126         1.680301
 H         2.378771         0.960433         1.870937
 H         3.038416        -0.975252        -1.379961
 H         2.973290         1.926782        -2.096908
 H         0.387776        -0.644331         1.149470
 H        -0.843677         0.297887         0.200203
 H        -0.266428        -1.092344        -0.586315
