19
Iteration:  4539
 C         1.305750         3.152142         0.252818
 C         1.985917         1.761131         0.081193
 C         3.045818         1.303528         1.053238
 O         3.511479         0.069661         0.457081
 C         2.762330        -0.065560        -0.758370
 C         2.530474         1.359734        -1.383019
 O         1.216738         0.973753        -1.758449
 C         1.266129         0.431535        -0.403336
 C         0.076064        -0.373375         0.073738
 H         0.649247         3.073250         1.159832
 H         2.017090         3.870472         0.342180
 H         0.602612         3.168718        -0.544185
 H         3.835951         2.056538         1.295127
 H         2.383861         1.247529         2.006554
 H         2.927867        -1.090883        -1.292399
 H         3.170215         2.009883        -2.046486
 H         0.210224        -0.849060         1.056654
 H        -0.784232         0.271829         0.312483
 H        -0.248288        -1.100209        -0.644574
