19
Iteration:  2632charge 0 multiplicity 1
 C         1.125846         3.083743         0.283790
 C         2.032343         1.771038         0.050682
 C         3.177836         1.371820         0.957592
 O         3.565282         0.026561         0.454763
 C         2.733355        -0.106031        -0.642581
 C         2.583435         1.291977        -1.449405
 O         1.183768         0.922451        -1.823448
 C         1.251548         0.480698        -0.369038
 C         0.020724        -0.203833         0.174374
 H         0.619646         2.759731         1.236101
 H         1.633518         3.959067         0.494045
 H         0.229763         3.292781        -0.473046
 H         4.034050         2.035627         0.927271
 H         2.980535         1.251041         2.024501
 H         3.056263        -0.997575        -1.312965
 H         3.218857         1.765363        -2.251651
 H         0.373194        -0.708069         1.000697
 H        -0.781018         0.425677         0.409939
 H        -0.366215        -1.060322        -0.403483
