19
Iteration:  4810
 C         1.133782         3.045224         0.216684
 C         2.015808         1.714316         0.058981
 C         3.059447         1.275654         1.026211
 O         3.586113         0.075816         0.475820
 C         2.746898        -0.096669        -0.729317
 C         2.579622         1.351350        -1.333179
 O         1.253466         1.045736        -1.884433
 C         1.230705         0.384615        -0.443627
 C         0.035050        -0.251857         0.218926
 H         0.552019         3.028790         1.129851
 H         1.911053         3.837466         0.277598
 H         0.538407         3.274271        -0.600172
 H         3.851622         2.035296         1.205001
 H         2.730934         1.039122         2.050654
 H         2.821244        -0.953334        -1.412175
 H         3.272264         2.022281        -1.894090
 H         0.521498        -0.498927         1.175953
 H        -0.722873         0.517573         0.441307
 H        -0.439622        -1.139059        -0.199134
