19
Iteration:  2242charge 0 multiplicity 1
 C         1.229824         2.980464         0.166458
 C         2.029860         1.755848         0.082177
 C         3.006882         1.289663         1.035977
 O         3.551124         0.070791         0.416023
 C         2.777400        -0.037067        -0.657200
 C         2.541790         1.382153        -1.434065
 O         1.184239         0.917300        -1.805480
 C         1.267094         0.440118        -0.456348
 C         0.085222        -0.189443         0.292815
 H         0.616668         2.965936         1.041721
 H         1.882106         3.972260         0.169955
 H         0.460491         3.002977        -0.643595
 H         3.826305         2.018332         1.096282
 H         2.646859         1.137626         2.114013
 H         3.052629        -0.831137        -1.240831
 H         3.187512         1.774227        -2.219976
 H         0.460837        -0.596075         1.210821
 H        -0.742190         0.524036         0.510636
 H        -0.330074        -1.058740        -0.348637
