19
Iteration:  2827charge 0 multiplicity 1
 C         1.217099         3.035869         0.178274
 C         2.038849         1.752613         0.018616
 C         3.020628         1.242727         1.075614
 O         3.619018         0.102863         0.463134
 C         2.765600        -0.043661        -0.702529
 C         2.483698         1.393355        -1.442252
 O         1.180980         0.898673        -1.848451
 C         1.322790         0.382644        -0.436141
 C         0.065856        -0.152006         0.297362
 H         0.677109         3.166780         1.200473
 H         1.872609         3.884620         0.179802
 H         0.472379         3.066350        -0.572174
 H         3.803100         1.917487         1.296800
 H         2.435209         0.921960         1.967638
 H         2.881010        -1.087693        -1.269622
 H         3.011956         2.079612        -2.136746
 H         0.349322        -0.733000         1.165321
 H        -0.702380         0.520588         0.623506
 H        -0.484499        -0.919206        -0.343312
