19
Iteration:   686
 C         1.221825         3.013928         0.350383
 C         2.057533         1.796916        -0.039840
 C         3.098110         1.317214         0.953706
 O         3.456056        -0.008556         0.466301
 C         2.681009        -0.007009        -0.710516
 C         2.524992         1.339206        -1.399235
 O         1.206073         0.949585        -1.864723
 C         1.248338         0.555375        -0.412318
 C         0.173170        -0.276284         0.236388
 H         0.766662         2.722379         1.382874
 H         1.700581         3.958026         0.445119
 H         0.445015         3.064593        -0.304595
 H         4.051894         1.964809         1.014101
 H         2.594083         1.228133         1.922791
 H         2.800821        -1.071261        -1.221119
 H         3.227668         1.794366        -2.060067
 H         0.661569        -1.093502         0.940918
 H        -0.430019         0.458407         0.800078
 H        -0.391921        -0.770942        -0.476786
