19
Iteration:  3192
 C         1.259976         3.112210         0.237801
 C         1.995469         1.769072         0.003947
 C         3.077090         1.250992         1.038367
 O         3.604235         0.056010         0.489612
 C         2.751209        -0.030040        -0.712827
 C         2.518698         1.403348        -1.370301
 O         1.202711         0.849431        -1.830125
 C         1.279030         0.411534        -0.442343
 C         0.010549        -0.242222         0.206555
 H         0.498455         2.797989         0.949564
 H         1.710792         4.005254         0.519173
 H         0.567465         3.157579        -0.683528
 H         3.923377         1.947498         1.159994
 H         2.648209         1.133618         2.122225
 H         2.930020        -0.821371        -1.416311
 H         3.159555         2.098525        -1.962176
 H         0.238698        -0.734733         1.197440
 H        -0.595757         0.697351         0.360748
 H        -0.607178        -0.693780        -0.516034
