19
Iteration:  2722
 C         1.305550         3.062341         0.255787
 C         2.081013         1.785071         0.071253
 C         3.104368         1.384773         1.043485
 O         3.490474         0.033518         0.537231
 C         2.694190        -0.054876        -0.785065
 C         2.545423         1.315916        -1.429904
 O         1.118811         0.960949        -1.849804
 C         1.230848         0.499680        -0.437688
 C         0.114326        -0.348396         0.215143
 H         0.788653         2.948838         1.166013
 H         1.838817         4.016883         0.051603
 H         0.536220         3.037013        -0.678762
 H         3.990462         2.100451         1.178461
 H         2.668129         1.314619         2.069614
 H         3.025466        -0.973494        -1.254043
 H         3.047964         1.963823        -2.228890
 H         0.365921        -0.558659         1.241052
 H        -0.890403         0.100134         0.197933
 H         0.051003        -1.412776        -0.119495
