19
Iteration:  2137charge 0 multiplicity 1
 C         1.260812         3.049502         0.152428
 C         2.034422         1.734175         0.056268
 C         3.029511         1.234959         1.101687
 O         3.646234         0.186865         0.409594
 C         2.740773        -0.006913        -0.624190
 C         2.508845         1.327242        -1.414828
 O         1.115052         0.894652        -1.777271
 C         1.303001         0.378596        -0.409328
 C         0.059822        -0.246111         0.182787
 H         0.716086         3.243097         1.175046
 H         1.934381         3.922623         0.088646
 H         0.598938         3.173093        -0.708184
 H         3.808947         1.955660         1.278428
 H         2.548107         0.940789         1.999199
 H         2.968145        -0.824530        -1.301129
 H         2.985785         1.875301        -2.169989
 H         0.050590        -0.559329         1.178131
 H        -0.701040         0.581141         0.029826
 H        -0.249717        -1.090597        -0.404197
