19
Iteration:  3366charge 0 multiplicity 1
 C         1.268076         3.056248         0.253949
 C         2.010285         1.752763         0.044248
 C         3.002039         1.301230         1.057594
 O         3.609335         0.097875         0.366623
 C         2.774730        -0.061213        -0.699653
 C         2.467910         1.340180        -1.341300
 O         1.220360         0.877720        -1.767108
 C         1.305584         0.363530        -0.411765
 C        -0.021022        -0.151863         0.160847
 H         0.529599         2.811636         1.096951
 H         1.969384         3.809066         0.474561
 H         0.628219         3.443881        -0.680182
 H         3.804518         2.021794         1.051040
 H         2.577635         1.207266         2.019828
 H         3.076171        -0.879039        -1.461825
 H         3.266477         1.835627        -1.988448
 H         0.136528        -0.818534         1.041612
 H        -0.477210         0.796593         0.455495
 H        -0.392840        -0.871923        -0.550028
