19
Iteration:  4243charge 0 multiplicity 1
 C         1.139009         2.958821         0.394679
 C         2.123148         1.760559        -0.031969
 C         3.116003         1.397722         0.965254
 O         3.475708         0.073070         0.539585
 C         2.683493        -0.057668        -0.678050
 C         2.569164         1.326950        -1.414424
 O         1.198453         0.950926        -1.869868
 C         1.313484         0.442075        -0.434780
 C         0.068445        -0.221464         0.118626
 H         0.579472         2.573987         1.345702
 H         1.717517         3.842795         0.785784
 H         0.552321         3.212919        -0.474015
 H         3.998974         2.010123         0.921234
 H         2.753393         1.243046         1.967322
 H         2.896163        -0.986962        -1.270011
 H         3.391896         1.800798        -2.094773
 H         0.312010        -0.592931         1.061715
 H        -0.664913         0.533515         0.278269
 H        -0.394047        -1.122159        -0.453669
