19
Iteration:   208charge 0 multiplicity 1
 C         1.376498         3.153135         0.215983
 C         1.981203         1.753246         0.092810
 C         3.018355         1.361726         1.070564
 O         3.638947         0.184121         0.404049
 C         2.748979        -0.060782        -0.687915
 C         2.536277         1.265039        -1.295373
 O         1.123848         0.921429        -1.826794
 C         1.148557         0.398114        -0.455206
 C         0.014907        -0.417494         0.126870
 H         0.477123         3.192189         0.875830
 H         2.103236         3.939632         0.607339
 H         1.102684         3.437063        -0.755810
 H         3.853472         2.168180         0.999594
 H         2.787915         1.237328         2.168152
 H         3.031094        -0.917909        -1.234609
 H         3.176750         1.865947        -1.880216
 H         0.361461        -0.808625         1.143209
 H        -0.841091         0.241128         0.359884
 H        -0.076914        -1.299129        -0.516456
