19
Iteration:  3821charge 0 multiplicity 1
 C         1.262595         3.046212         0.278486
 C         2.101083         1.810193        -0.013057
 C         3.142978         1.414832         0.963782
 O         3.397205        -0.000822         0.503088
 C         2.691972        -0.118565        -0.696926
 C         2.548509         1.318903        -1.359292
 O         1.159422         1.057929        -1.776117
 C         1.239273         0.518387        -0.422157
 C         0.125716        -0.415615         0.130048
 H         0.678028         2.791116         1.138606
 H         1.995700         3.873035         0.774272
 H         0.741894         3.388472        -0.579361
 H         4.059174         2.141977         0.874638
 H         2.698516         1.585534         2.017234
 H         2.940646        -1.058146        -1.117422
 H         3.143360         1.835485        -2.129008
 H         0.361661        -0.800844         1.158407
 H        -0.910521        -0.068405         0.123833
 H         0.115782        -1.309626        -0.644274
