19
Iteration:  4221
 C         1.138027         2.996929         0.322155
 C         1.949263         1.690337         0.045280
 C         3.142664         1.377445         1.005464
 O         3.441698        -0.029549         0.527348
 C         2.844253        -0.037614        -0.699682
 C         2.543592         1.390163        -1.392708
 O         1.228585         0.959376        -1.871637
 C         1.237358         0.448341        -0.507061
 C         0.107965        -0.193575         0.195465
 H         0.734311         3.018094         1.416823
 H         1.770265         3.940653         0.295461
 H         0.417553         3.104279        -0.483715
 H         4.026421         1.889454         0.635263
 H         3.065029         1.355878         2.106977
 H         3.041683        -0.940414        -1.305342
 H         3.327923         2.009186        -1.992545
 H         0.431121        -0.610609         1.085535
 H        -0.664704         0.520394         0.385202
 H        -0.353936        -1.051902        -0.444542
