19
Iteration:   596
 C         1.291488         3.067390         0.196444
 C         1.985022         1.709982         0.067226
 C         3.000773         1.208815         1.078838
 O         3.706008         0.172887         0.240671
 C         2.730651        -0.097471        -0.753517
 C         2.599678         1.326947        -1.299761
 O         1.146496         1.004065        -1.727857
 C         1.204203         0.457396        -0.389530
 C         0.005359        -0.252552         0.222561
 H         0.716337         3.157899         1.170737
 H         2.002202         3.852336         0.288412
 H         0.546660         3.273789        -0.611327
 H         3.747293         1.859625         1.563607
 H         2.276032         0.673685         1.825049
 H         2.897367        -0.989346        -1.309729
 H         3.381205         1.767374        -1.947203
 H        -0.043573        -0.268407         1.302102
 H        -0.894974         0.339833         0.003519
 H         0.013802        -1.357359        -0.145117
