19
Iteration:  1948charge 0 multiplicity 1
 C         1.166512         2.980152         0.270139
 C         1.998553         1.751263        -0.032503
 C         3.123181         1.430211         1.032554
 O         3.421815         0.042689         0.514932
 C         2.715524        -0.019334        -0.718962
 C         2.580068         1.275914        -1.391772
 O         1.234386         0.969196        -1.931061
 C         1.298065         0.456280        -0.440955
 C         0.130320        -0.298423         0.289994
 H         0.974608         3.029812         1.341645
 H         1.809141         3.924629         0.105266
 H         0.289928         3.047896        -0.286771
 H         4.013524         2.038817         0.984653
 H         2.712645         1.455276         2.058297
 H         2.872878        -1.016118        -1.278060
 H         3.248840         1.905734        -2.066272
 H         0.403404        -0.539463         1.257394
 H        -0.632857         0.456771         0.424204
 H        -0.258006        -1.227376        -0.172575
