19
Iteration:  1265
 C         1.348712         3.070133         0.246826
 C         1.994660         1.753874        -0.016632
 C         3.123749         1.358755         1.010235
 O         3.663560         0.147812         0.426858
 C         2.663860        -0.017912        -0.604863
 C         2.485069         1.285895        -1.332679
 O         1.123466         0.868041        -1.799033
 C         1.201811         0.444305        -0.384573
 C         0.018168        -0.315336         0.107854
 H         0.946947         3.092658         1.265077
 H         2.011540         3.909851         0.191206
 H         0.396601         3.159292        -0.422147
 H         3.959784         2.127197         0.892947
 H         2.865976         1.225262         2.009536
 H         2.805544        -0.895198        -1.137220
 H         3.212459         1.925030        -1.879760
 H         0.045146        -0.400459         1.131584
 H        -0.898034         0.142548        -0.290643
 H         0.111071        -1.316687        -0.301070
