19
Iteration:  1037
 C         1.246674         3.050992         0.212413
 C         1.943172         1.749818         0.024119
 C         2.977507         1.199108         1.093764
 O         3.675508         0.153678         0.328695
 C         2.754554        -0.055945        -0.770073
 C         2.521459         1.318104        -1.379763
 O         1.169000         0.878036        -1.813351
 C         1.224372         0.451244        -0.442001
 C         0.113336        -0.141951         0.335652
 H         0.631411         3.144167         1.046857
 H         1.957756         3.838150         0.409072
 H         0.658617         3.277026        -0.725457
 H         3.661439         1.891423         1.497315
 H         2.516199         0.582822         1.986369
 H         2.883273        -0.887872        -1.302526
 H         3.347212         1.919912        -1.912154
 H         0.372583        -0.161701         1.401713
 H        -0.846045         0.479310         0.123583
 H         0.017009        -1.266105         0.148886
