19
Iteration:   319
 C         1.272292         3.093307         0.284319
 C         2.033404         1.757172         0.057347
 C         3.013379         1.189360         1.167359
 O         3.661085         0.175833         0.363734
 C         2.821237         0.045742        -0.750967
 C         2.442495         1.316870        -1.345595
 O         1.111967         0.805963        -1.792733
 C         1.344691         0.307531        -0.390502
 C        -0.012044        -0.108696         0.069758
 H         0.797002         3.407700         1.185555
 H         1.974197         3.951761        -0.075547
 H         0.558307         3.052858        -0.473784
 H         3.825289         1.925492         1.636745
 H         2.543328         0.623138         1.953838
 H         3.089666        -0.958395        -1.326783
 H         2.866496         2.000469        -2.109132
 H        -0.040596        -0.378836         1.147628
 H        -0.678597         0.731490         0.137623
 H        -0.202677        -1.102655        -0.495774
