19
Iteration:  2129
 C         1.187864         3.053586         0.176457
 C         1.984114         1.770890         0.096245
 C         3.004583         1.284563         1.123237
 O         3.695219         0.132342         0.369028
 C         2.779471        -0.067287        -0.705648
 C         2.530870         1.249876        -1.404419
 O         1.170330         0.895782        -1.771495
 C         1.253974         0.473985        -0.432579
 C         0.050799        -0.187286         0.189280
 H         0.665850         3.378804         1.084576
 H         1.955440         3.781033         0.150990
 H         0.412181         3.056792        -0.723598
 H         3.873869         1.936190         1.445673
 H         2.559416         0.911358         2.045957
 H         3.197259        -1.000726        -1.271356
 H         2.997910         1.892138        -2.217619
 H         0.086910        -0.435215         1.297019
 H        -0.838295         0.362265         0.240444
 H        -0.171422        -1.091418        -0.307239
