19
Iteration:  3307
 C         1.230172         2.980131         0.251291
 C         2.056304         1.758003        -0.008981
 C         3.031126         1.327752         1.030973
 O         3.423584         0.052178         0.470774
 C         2.743216        -0.066837        -0.699385
 C         2.631159         1.319700        -1.457424
 O         1.174834         1.061372        -1.819536
 C         1.307422         0.477565        -0.445840
 C         0.101556        -0.327132         0.288297
 H         0.776063         3.085329         1.240033
 H         1.878775         3.946230         0.184687
 H         0.513369         3.105430        -0.484841
 H         3.968344         1.932549         1.062539
 H         2.643712         1.329366         2.033681
 H         2.975734        -0.945028        -1.227761
 H         3.366320         1.799745        -2.046465
 H         0.263905        -0.569640         1.299505
 H        -0.819222         0.188847         0.231801
 H        -0.273008        -1.137011        -0.404117
