19
Iteration:  1361
 C         1.127011         2.947875         0.219759
 C         2.055429         1.744839        -0.031458
 C         3.195473         1.440303         0.885310
 O         3.369565        -0.027161         0.578862
 C         2.676520        -0.117610        -0.647596
 C         2.536066         1.358591        -1.378679
 O         1.230853         1.042954        -1.836069
 C         1.279400         0.473654        -0.444628
 C         0.177014        -0.246325         0.272917
 H         0.272692         2.824959         0.895441
 H         1.592898         3.798138         0.568195
 H         0.696545         3.091302        -0.726598
 H         4.055590         2.039834         0.546597
 H         3.015055         1.582841         1.972049
 H         3.073748        -0.985050        -1.157302
 H         3.155501         1.758813        -2.115211
 H         0.853736        -0.737453         0.960287
 H        -0.578620         0.411158         0.778260
 H        -0.230929        -1.071658        -0.293277
