19
Iteration:  1850
 C         1.333855         3.108367         0.137497
 C         2.023727         1.779784         0.095328
 C         2.995175         1.279875         1.093084
 O         3.563699         0.178232         0.402641
 C         2.787038         0.018878        -0.735397
 C         2.480367         1.303707        -1.416861
 O         1.135991         0.815204        -1.693791
 C         1.315250         0.418375        -0.372872
 C         0.059301        -0.287947         0.134168
 H         0.687994         3.395759         1.056680
 H         2.119443         3.932595         0.062900
 H         0.673057         3.059479        -0.696419
 H         3.768567         1.945670         1.639939
 H         2.436165         0.785472         1.897425
 H         3.109226        -0.978164        -1.267745
 H         3.047227         1.941102        -2.190982
 H         0.114878        -0.609554         1.118889
 H        -0.712546         0.496132         0.147420
 H        -0.291542        -1.135598        -0.507749
