19
Iteration:   280
 C         1.170782         2.962726         0.273635
 C         2.002579         1.736420         0.021205
 C         3.023603         1.364993         0.995361
 O         3.491602         0.039582         0.467222
 C         2.738248        -0.109207        -0.715503
 C         2.592713         1.324379        -1.395312
 O         1.258225         1.047488        -1.942700
 C         1.262276         0.448318        -0.442254
 C         0.133330        -0.198281         0.344624
 H         0.838794         2.842772         1.333455
 H         1.552881         3.939596         0.143878
 H         0.206333         2.831082        -0.380579
 H         3.784522         2.121165         1.098785
 H         2.642007         1.093208         2.031945
 H         2.954221        -1.019181        -1.315587
 H         3.364023         1.851270        -2.045193
 H         0.668309        -0.768015         1.213846
 H        -0.684618         0.513270         0.648316
 H        -0.321656        -0.965998        -0.291998
