19
Iteration:  3034
 C         1.249450         3.007915         0.230051
 C         2.024257         1.746499        -0.010554
 C         3.136676         1.344243         1.012830
 O         3.503307         0.022409         0.557252
 C         2.744955        -0.009146        -0.674865
 C         2.547826         1.349928        -1.399198
 O         1.158448         0.927763        -1.800557
 C         1.210348         0.456277        -0.481628
 C         0.093808        -0.227320         0.221210
 H         0.523950         3.057748         1.091304
 H         1.874975         3.883809         0.357627
 H         0.639551         3.161083        -0.606592
 H         4.000097         2.099397         0.871170
 H         2.706983         1.366711         2.059829
 H         3.069669        -0.819227        -1.463447
 H         3.102531         1.777798        -2.243806
 H         0.568907        -0.788026         0.991874
 H        -0.790884         0.366882         0.316527
 H        -0.291411        -1.150851        -0.431526
