19
Iteration:  1697
 C         1.294649         3.046531         0.185967
 C         2.017732         1.743778         0.013090
 C         2.984193         1.299418         1.083727
 O         3.661730         0.175615         0.402525
 C         2.776281        -0.036093        -0.657413
 C         2.459371         1.361110        -1.399766
 O         1.179622         0.811267        -1.742330
 C         1.300330         0.339435        -0.421781
 C         0.007180        -0.179081         0.163565
 H         0.553053         2.970964         1.042422
 H         2.121360         3.768298         0.410277
 H         0.860934         3.407286        -0.631007
 H         3.763980         2.061149         1.451378
 H         2.452297         0.933888         1.932982
 H         3.104504        -0.895952        -1.276432
 H         2.815237         2.042959        -2.236844
 H        -0.029178        -0.168092         1.287965
 H        -0.761682         0.565252        -0.193130
 H        -0.329996        -1.201399        -0.141533
