19
Iteration:   369
 C         1.301414         3.065329         0.330588
 C         1.979555         1.744426         0.069701
 C         3.235524         1.423621         0.966119
 O         3.440072         0.064020         0.527664
 C         2.612285        -0.083946        -0.693402
 C         2.524595         1.337971        -1.350110
 O         1.176459         1.047586        -1.890159
 C         1.238877         0.399537        -0.458599
 C         0.120859        -0.414233         0.114375
 H         0.596165         2.930785         1.217836
 H         1.978781         3.858936         0.607756
 H         0.691170         3.419151        -0.556772
 H         3.988319         2.117623         0.793799
 H         3.202568         1.248861         2.080832
 H         2.904487        -0.922253        -1.209563
 H         3.192253         1.721892        -2.104705
 H         0.215674        -0.436537         1.265363
 H        -0.807005         0.169491        -0.009630
 H         0.090858        -1.383275        -0.213091
