19
Iteration:  1034charge 0 multiplicity 1
 C         1.253282         3.071750         0.199513
 C         1.949148         1.736494         0.000334
 C         2.962160         1.174153         1.086154
 O         3.704023         0.153769         0.335851
 C         2.782967        -0.037673        -0.769448
 C         2.526069         1.304961        -1.380093
 O         1.149692         0.882596        -1.807475
 C         1.230657         0.453593        -0.415662
 C         0.098509        -0.127167         0.331822
 H         0.521331         3.096754         1.126973
 H         1.931497         3.887329         0.382692
 H         0.675209         3.218498        -0.667693
 H         3.674680         1.868389         1.545671
 H         2.419365         0.632195         1.893224
 H         2.918396        -1.028254        -1.406357
 H         3.197436         1.962759        -1.812820
 H         0.324843        -0.165251         1.444637
 H        -0.850343         0.367846         0.108321
 H        -0.017939        -1.153437         0.108213
