19
Iteration:   195charge 0 multiplicity 1
 C         1.390642         3.114051         0.207553
 C         1.948893         1.750833         0.027904
 C         2.989027         1.294838         1.076516
 O         3.737227         0.228902         0.388237
 C         2.760478        -0.048849        -0.641887
 C         2.439373         1.308358        -1.361868
 O         1.162433         0.860199        -1.782811
 C         1.218326         0.448822        -0.357046
 C        -0.001339        -0.343728         0.102477
 H         0.624218         3.240946         1.017197
 H         2.251786         3.748202         0.426260
 H         0.908604         3.504279        -0.717167
 H         3.670284         2.103072         1.480155
 H         2.397485         0.736339         1.921609
 H         2.884837        -0.860703        -1.245976
 H         3.021084         1.802301        -2.052113
 H         0.233654        -0.782439         1.184053
 H        -1.015035         0.120595         0.020849
 H        -0.227832        -1.145770        -0.547297
