19
Iteration:  1110
 C         1.244249         3.042090         0.224033
 C         2.024569         1.812986         0.082119
 C         3.282226         1.440835         0.944832
 O         3.487444         0.072270         0.494335
 C         2.667682        -0.052624        -0.646739
 C         2.512999         1.287774        -1.355477
 O         1.141572         0.938405        -1.859641
 C         1.224935         0.475492        -0.311996
 C         0.052366        -0.373533         0.118674
 H         0.864910         3.155897         1.333533
 H         1.931535         3.893769         0.180028
 H         0.408796         3.119517        -0.458948
 H         4.234723         2.105138         0.735182
 H         3.067108         1.545563         1.987432
 H         2.886887        -1.040530        -1.300372
 H         3.121288         1.706252        -2.086250
 H         0.417439        -1.245696         0.679716
 H        -0.756410         0.053981         0.660039
 H        -0.272547        -0.877386        -0.728761
