19
Iteration:  4245
 C         1.154969         2.948698         0.399539
 C         2.108995         1.774839        -0.038268
 C         3.109280         1.389432         0.977533
 O         3.481102         0.070678         0.516328
 C         2.706329        -0.056445        -0.639588
 C         2.569472         1.336633        -1.449657
 O         1.198430         0.954418        -1.866144
 C         1.288872         0.438144        -0.422834
 C         0.072885        -0.228357         0.110067
 H         0.566715         2.578460         1.315365
 H         1.646297         3.823470         0.759295
 H         0.585473         3.250644        -0.475655
 H         4.032545         2.001647         0.925644
 H         2.719381         1.265054         2.017118
 H         2.852612        -1.045222        -1.232517
 H         3.421740         1.789807        -2.063402
 H         0.285050        -0.596897         1.115133
 H        -0.671370         0.534106         0.259928
 H        -0.357736        -1.055107        -0.451322
