19
Iteration:   391charge 0 multiplicity 1
 C         1.225435         3.052034         0.309693
 C         2.015594         1.811937        -0.001400
 C         3.138424         1.308688         0.881144
 O         3.304306        -0.093293         0.566982
 C         2.740799        -0.031739        -0.706149
 C         2.527446         1.478636        -1.398779
 O         1.165365         0.942885        -1.812785
 C         1.327178         0.537614        -0.442600
 C         0.225031        -0.339712         0.183075
 H         0.565495         2.899591         1.239723
 H         1.854207         3.914318         0.541784
 H         0.577170         3.322793        -0.564151
 H         4.129819         1.655311         0.748201
 H         2.842070         1.479743         1.988372
 H         3.069908        -0.795428        -1.355694
 H         3.191190         1.974283        -2.090916
 H         0.408943        -0.615205         1.293683
 H        -0.734122         0.144884         0.363964
 H         0.253834        -1.204654        -0.314098
