19
Iteration:  1385
 C         1.143265         3.048360         0.272581
 C         2.043964         1.769205        -0.023259
 C         3.239309         1.391028         0.985737
 O         3.427958         0.006649         0.558071
 C         2.707968        -0.003150        -0.710751
 C         2.554950         1.352159        -1.391596
 O         1.135743         0.855892        -1.842338
 C         1.332669         0.429388        -0.408045
 C         0.103309        -0.249555         0.229259
 H         0.345940         2.896841         0.921789
 H         1.699595         3.863864         0.659683
 H         0.724372         3.433862        -0.748042
 H         4.148910         2.068693         0.706810
 H         3.083596         1.459913         2.011162
 H         2.934898        -0.893793        -1.212023
 H         3.132880         1.885235        -2.230742
 H         0.287558        -0.786600         1.087486
 H        -0.621422         0.576632         0.286354
 H        -0.182967        -0.980995        -0.557539
