19
Iteration:  1438
 C         1.403481         3.108471         0.203709
 C         1.975770         1.702790         0.087188
 C         2.941618         1.246025         1.130707
 O         3.677790         0.272950         0.362727
 C         2.795919        -0.004462        -0.711526
 C         2.453114         1.216037        -1.378085
 O         1.172596         0.879594        -1.828491
 C         1.253077         0.378747        -0.399819
 C        -0.019594        -0.244692         0.194850
 H         1.164444         3.389826         1.200678
 H         2.059297         3.775951        -0.207781
 H         0.516717         3.224464        -0.448754
 H         3.603934         1.980275         1.526429
 H         2.410734         0.741749         1.994204
 H         2.975664        -0.890606        -1.230392
 H         2.982293         1.814769        -2.102636
 H         0.125455        -0.298193         1.242112
 H        -0.885226         0.447773        -0.023826
 H        -0.113039        -1.279533        -0.206773
