19
Iteration:  2126charge 0 multiplicity 1
 C         1.175314         3.055797         0.175305
 C         1.966817         1.770524         0.099373
 C         3.012598         1.297699         1.127791
 O         3.694808         0.120541         0.365868
 C         2.808546        -0.090393        -0.735250
 C         2.535812         1.253918        -1.405860
 O         1.181667         0.897992        -1.778612
 C         1.236040         0.487707        -0.410277
 C         0.042141        -0.178627         0.202870
 H         0.577890         3.296514         1.147742
 H         1.946252         3.812230         0.044917
 H         0.471339         3.073374        -0.640488
 H         3.797195         1.956078         1.452364
 H         2.567077         0.888516         1.994074
 H         3.121748        -0.996742        -1.233039
 H         3.058573         1.812266        -2.129074
 H         0.244503        -0.387806         1.224754
 H        -0.899739         0.371058         0.201583
 H        -0.147455        -1.100055        -0.290458
