19
Iteration:  3397
 C         1.227649         2.988660         0.235224
 C         2.089922         1.777509         0.040696
 C         3.104914         1.366939         1.077857
 O         3.564713         0.028856         0.503756
 C         2.702736        -0.040382        -0.695105
 C         2.486714         1.274974        -1.454509
 O         1.178815         1.007219        -1.829903
 C         1.201856         0.471349        -0.388524
 C         0.070661        -0.256534         0.128831
 H         0.930694         2.877278         1.329881
 H         1.791347         3.882297         0.396818
 H         0.374274         3.192720        -0.555326
 H         4.013960         2.008239         0.895160
 H         2.881411         1.445894         2.146596
 H         3.041580        -0.965892        -1.218561
 H         3.280522         1.701265        -2.153379
 H         0.419300        -0.709973         1.039709
 H        -0.844101         0.294058         0.421279
 H        -0.318511        -1.110753        -0.599797
