19
Iteration:  4883charge 0 multiplicity 1
 C         1.342529         3.071071         0.312098
 C         1.959158         1.760224         0.049718
 C         3.087363         1.379718         1.002769
 O         3.475443         0.071710         0.467318
 C         2.674127        -0.019918        -0.663743
 C         2.580671         1.301362        -1.380213
 O         1.207231         0.986061        -1.851844
 C         1.159529         0.474241        -0.440642
 C         0.138384        -0.391833         0.110181
 H         0.872948         3.014345         1.303564
 H         2.027487         4.008053         0.220024
 H         0.428036         3.259023        -0.329997
 H         3.973761         1.956315         1.158816
 H         2.757208         1.169086         2.037582
 H         2.814651        -1.082847        -1.064352
 H         3.268282         1.865285        -1.894184
 H         0.492479        -0.505688         1.079313
 H        -0.850894         0.082070         0.073187
 H         0.069595        -1.403761        -0.499436
