19
Iteration:   915
 C         1.328252         3.142649         0.271198
 C         2.017383         1.773176        -0.026320
 C         3.061688         1.331844         1.027572
 O         3.513783         0.036414         0.484548
 C         2.720510        -0.039982        -0.679437
 C         2.504385         1.313553        -1.463025
 O         1.114106         0.989067        -1.830111
 C         1.235041         0.412358        -0.418485
 C         0.164457        -0.352730         0.245341
 H         0.748050         3.163416         1.241840
 H         1.968806         4.014149         0.289504
 H         0.594593         3.332843        -0.479816
 H         3.924192         1.944635         0.992929
 H         2.668290         1.252688         2.113667
 H         2.917308        -0.961279        -1.233135
 H         3.181137         1.863193        -2.092369
 H         0.646820        -1.249412         0.864671
 H        -0.626644         0.228255         0.766568
 H        -0.371280        -0.785580        -0.600726
