19
Iteration:  1347charge 0 multiplicity 1
 C         1.092053         2.996404         0.181405
 C         1.994322         1.776072         0.018539
 C         3.134611         1.385398         0.960611
 O         3.424529         0.016687         0.554291
 C         2.689833        -0.065876        -0.717472
 C         2.636549         1.249942        -1.454593
 O         1.204925         1.088254        -1.890797
 C         1.291119         0.445675        -0.421549
 C         0.210633        -0.285566         0.359679
 H         0.476209         2.774417         1.130958
 H         1.744282         3.923438         0.263809
 H         0.567409         3.252337        -0.676652
 H         4.006299         1.934159         0.867161
 H         2.902066         1.402621         2.107394
 H         2.719347        -1.101121        -1.250799
 H         3.347176         1.763007        -2.065463
 H         0.516911        -0.930233         1.284345
 H        -0.553470         0.424038         0.760258
 H        -0.307187        -0.961835        -0.341484
