19
Iteration:  2220
 C         1.182503         3.062379         0.194357
 C         2.060543         1.773273         0.027484
 C         3.118191         1.358508         0.970920
 O         3.440174         0.032619         0.588757
 C         2.750609        -0.075754        -0.742106
 C         2.522781         1.320633        -1.425423
 O         1.107564         0.967820        -1.845258
 C         1.337613         0.434120        -0.407440
 C         0.195110        -0.303617         0.195966
 H         0.733689         3.002115         1.156122
 H         1.966400         3.912275         0.406828
 H         0.308967         3.297760        -0.436990
 H         3.999023         2.025629         1.034270
 H         2.634680         1.451365         2.030540
 H         2.716918        -0.967414        -1.221079
 H         3.192747         1.893209        -2.086437
 H         0.595785        -0.593145         1.160349
 H        -0.535520         0.460320         0.540996
 H        -0.305397        -1.146741        -0.430146
