19
Iteration:  1394charge 0 multiplicity 1
 C         1.183610         3.095140         0.286335
 C         1.993728         1.813543         0.024369
 C         3.169469         1.417311         0.974780
 O         3.504034         0.014842         0.494002
 C         2.764354        -0.074476        -0.705953
 C         2.502861         1.320973        -1.442503
 O         1.176149         0.850924        -1.812045
 C         1.299451         0.429056        -0.340990
 C         0.071215        -0.239309         0.169492
 H         0.404689         2.896565         0.993425
 H         1.814177         3.852050         0.572539
 H         0.771442         3.450697        -0.637685
 H         4.015622         2.051829         0.934991
 H         2.846194         1.362578         2.023128
 H         3.144544        -0.859106        -1.307361
 H         3.176494         1.644681        -2.217667
 H         0.204463        -0.671375         1.150409
 H        -0.781556         0.491968         0.339474
 H        -0.214493        -1.042968        -0.528436
