19
Iteration:  4659charge 0 multiplicity 1
 C         1.242031         3.069781         0.253781
 C         1.968669         1.744447         0.064112
 C         3.067963         1.331056         1.094514
 O         3.515930         0.012358         0.479401
 C         2.756686        -0.070987        -0.684822
 C         2.602412         1.421024        -1.332415
 O         1.191075         1.006545        -1.888502
 C         1.172353         0.405665        -0.532125
 C         0.084764        -0.302579         0.173371
 H         0.788032         3.037444         1.322255
 H         1.983717         3.922411         0.308156
 H         0.519833         3.104277        -0.591078
 H         3.985342         1.931405         0.897011
 H         2.774212         1.174829         2.114983
 H         3.040110        -0.979959        -1.313304
 H         3.269456         2.032563        -2.031955
 H         0.517513        -0.494139         1.220011
 H        -0.872178         0.245382         0.243614
 H         0.019962        -1.275888        -0.246173
