19
Iteration:  4667
 C         1.246412         3.064891         0.233265
 C         1.973133         1.780686         0.088145
 C         3.093886         1.262941         1.094917
 O         3.547260         0.082623         0.520858
 C         2.661697        -0.033875        -0.738625
 C         2.561149         1.343975        -1.363501
 O         1.213020         1.014157        -1.843543
 C         1.234934         0.408973        -0.500713
 C         0.098978        -0.308708         0.149213
 H         0.790474         3.039047         1.226828
 H         2.100077         3.877687         0.184758
 H         0.657078         3.260073        -0.590212
 H         3.820890         2.129682         1.153306
 H         2.747186         0.991546         2.068916
 H         2.869839        -0.916988        -1.441171
 H         3.086826         1.878973        -2.088625
 H         0.353462        -0.619387         1.111614
 H        -0.886646         0.165518         0.100824
 H        -0.064664        -1.396367        -0.296038
