19
Iteration:   584
 C         1.328966         3.013544         0.205289
 C         1.999926         1.723508         0.038751
 C         2.939540         1.136513         1.041756
 O         3.685471         0.188208         0.308191
 C         2.691132        -0.057853        -0.722727
 C         2.565596         1.318844        -1.326542
 O         1.167074         1.070720        -1.802282
 C         1.237094         0.435953        -0.425386
 C         0.049386        -0.243830         0.308282
 H         0.726887         3.065139         1.136012
 H         2.093390         3.790610         0.115889
 H         0.666667         3.174729        -0.756320
 H         3.637874         1.784943         1.549584
 H         2.435204         0.565471         1.984187
 H         2.784111        -0.909183        -1.234397
 H         3.063406         2.164244        -1.844007
 H         0.321766        -0.177488         1.310091
 H        -0.958750         0.098886        -0.013490
 H        -0.062890        -1.431100         0.035935
