19
Iteration:  3942charge 0 multiplicity 1
 C         1.232858         3.051839         0.251155
 C         1.938799         1.731374         0.082208
 C         3.173155         1.339068         1.008159
 O         3.416912         0.031741         0.533320
 C         2.780377        -0.008017        -0.713147
 C         2.512031         1.314944        -1.383238
 O         1.174876         1.002550        -1.816301
 C         1.275784         0.422912        -0.435193
 C         0.134273        -0.299582         0.124025
 H         0.602596         2.961520         1.168667
 H         2.133431         3.773385         0.522028
 H         0.700700         3.332576        -0.675031
 H         4.035091         2.017045         0.694954
 H         2.971684         1.246043         2.110785
 H         2.960171        -0.929601        -1.348956
 H         3.032323         1.888222        -2.121268
 H         0.489505        -0.587446         1.138775
 H        -0.695243         0.387373         0.171849
 H        -0.191381        -1.088469        -0.519449
