19
Iteration:  2429charge 0 multiplicity 1
 C         1.202766         3.041042         0.231876
 C         2.039899         1.777299         0.037545
 C         3.050677         1.286226         1.022074
 O         3.623624         0.121336         0.503263
 C         2.721955        -0.100782        -0.766130
 C         2.524680         1.350107        -1.393739
 O         1.148171         0.902549        -1.808854
 C         1.272141         0.406958        -0.470572
 C         0.082020        -0.172622         0.256150
 H         0.543042         3.153529         1.116369
 H         2.081690         3.858953         0.254019
 H         0.452751         3.078092        -0.553685
 H         3.896775         1.936929         1.241678
 H         2.731641         1.010311         2.036737
 H         2.969534        -0.877544        -1.360280
 H         3.210574         1.656674        -2.202582
 H         0.297381        -0.740228         1.131800
 H        -0.744799         0.572925         0.494003
 H        -0.432226        -0.909093        -0.457053
