19
Iteration:  2646charge 0 multiplicity 1
 C         1.188193         2.994827         0.341531
 C         1.980519         1.780257         0.006492
 C         3.076525         1.337840         0.967197
 O         3.615189         0.079575         0.456172
 C         2.766913        -0.051986        -0.714212
 C         2.506567         1.249232        -1.385893
 O         1.180671         0.934657        -1.762668
 C         1.285666         0.427735        -0.434364
 C         0.078028        -0.169779         0.195135
 H         0.566853         3.037198         1.199491
 H         1.862292         3.914966         0.203692
 H         0.634403         3.107980        -0.746027
 H         3.947530         2.065909         0.856350
 H         2.636033         1.104294         1.927563
 H         2.796769        -1.006156        -1.170238
 H         3.190655         1.726450        -2.164181
 H         0.121651        -0.540422         1.225833
 H        -0.700234         0.645475         0.270531
 H        -0.291821        -0.922404        -0.586889
