19
Iteration:  1808charge 0 multiplicity 1
 C         1.230647         3.085301         0.222231
 C         1.943926         1.747576         0.062609
 C         3.118924         1.455038         0.989843
 O         3.352528         0.062792         0.510799
 C         2.684444        -0.065843        -0.707476
 C         2.597273         1.269990        -1.377394
 O         1.267326         0.985302        -1.898814
 C         1.224798         0.438630        -0.428713
 C         0.175320        -0.358729         0.242477
 H         1.221979         3.266499         1.365688
 H         1.765530         3.932575        -0.111728
 H         0.300018         3.172300        -0.145146
 H         4.054867         2.120682         0.813782
 H         2.858186         1.386723         1.979253
 H         2.841775        -1.128953        -1.263942
 H         3.257102         1.762303        -2.090051
 H         0.772050        -0.789614         1.012686
 H        -0.662995         0.171993         0.733655
 H         0.042167        -1.344423        -0.314057
