19
Iteration:  3108charge 0 multiplicity 1
 C         1.333065         3.081650         0.214045
 C         1.939787         1.767684         0.029355
 C         3.006984         1.363751         0.975143
 O         3.561283         0.005249         0.463928
 C         2.753354        -0.015356        -0.684992
 C         2.467190         1.378179        -1.322165
 O         1.188090         0.924694        -1.795205
 C         1.264048         0.373402        -0.396491
 C         0.111545        -0.274514         0.165275
 H         0.921538         3.237204         1.210858
 H         2.124525         3.957034         0.020944
 H         0.501400         3.221394        -0.512735
 H         3.854627         2.057984         1.154733
 H         2.500346         1.107850         1.871549
 H         3.009393        -0.836293        -1.508291
 H         3.236207         1.854075        -1.955657
 H         0.282379        -0.502585         1.275511
 H        -0.785651         0.394992         0.064938
 H        -0.066056        -1.291486        -0.263426
