19
Iteration:  4277charge 0 multiplicity 1
 C         1.246213         3.059606         0.307926
 C         2.017350         1.780271         0.042844
 C         3.049452         1.269132         1.067049
 O         3.602268         0.115721         0.419441
 C         2.778631        -0.023674        -0.707327
 C         2.552199         1.303077        -1.368197
 O         1.141184         0.896923        -1.814609
 C         1.241494         0.419250        -0.404269
 C         0.046059        -0.243391         0.086180
 H         0.361976         3.004098         1.073660
 H         1.839129         3.899682         0.600567
 H         0.729071         3.404751        -0.604512
 H         3.826568         1.997862         1.263562
 H         2.591273         1.088040         2.028015
 H         2.944275        -0.904939        -1.424366
 H         3.477659         1.758376        -1.830342
 H         0.244510        -0.430931         1.120769
 H        -0.711946         0.522176         0.086367
 H        -0.290250        -1.134665        -0.465866
