19
Iteration:  1351charge 0 multiplicity 1
 C         1.088203         2.988251         0.207688
 C         2.018171         1.762263        -0.006501
 C         3.148181         1.403056         0.955487
 O         3.410025         0.000807         0.567661
 C         2.685738        -0.086084        -0.701322
 C         2.633325         1.269859        -1.451535
 O         1.214284         1.098882        -1.878224
 C         1.270113         0.419215        -0.426817
 C         0.217737        -0.273663         0.359735
 H         0.369381         2.919294         0.997968
 H         1.717638         3.801064         0.388194
 H         0.503994         3.165340        -0.732832
 H         4.087638         2.027713         0.695689
 H         2.931302         1.487855         2.012907
 H         2.736648        -0.988624        -1.233078
 H         3.335506         1.774125        -2.118373
 H         0.582795        -0.833480         1.160064
 H        -0.622819         0.331925         0.748250
 H        -0.288551        -0.892798        -0.371596
