19
Iteration:  2673
 C         1.296292         3.043016         0.211571
 C         1.990237         1.747097         0.018499
 C         3.062550         1.223948         1.114895
 O         3.617133         0.132432         0.408392
 C         2.838399         0.023633        -0.713161
 C         2.472133         1.355083        -1.427320
 O         1.158016         0.892864        -1.793162
 C         1.221489         0.391285        -0.463226
 C        -0.011406        -0.202517         0.241972
 H         0.733160         3.085542         1.203193
 H         1.978382         3.894726         0.085508
 H         0.695584         3.140818        -0.574409
 H         3.866247         1.909972         1.298357
 H         2.491408         0.819384         2.009126
 H         3.259660        -0.903583        -1.236361
 H         3.085283         1.813767        -2.157590
 H         0.337725        -0.305157         1.349280
 H        -0.865856         0.505163         0.319987
 H        -0.337201        -1.162850        -0.126021
