19
Iteration:  1522charge 0 multiplicity 1
 C         1.160844         3.010278         0.253591
 C         2.043064         1.826627         0.029522
 C         3.186519         1.392447         0.951565
 O         3.415022         0.035764         0.556577
 C         2.689863        -0.079372        -0.651191
 C         2.554983         1.321890        -1.423086
 O         1.185831         0.906247        -1.880217
 C         1.298946         0.438779        -0.446532
 C         0.155912        -0.227992         0.213547
 H         0.317287         2.793097         1.031408
 H         1.731911         3.847243         0.796555
 H         0.711616         3.267498        -0.661330
 H         4.065117         2.050194         0.707209
 H         2.990716         1.496958         2.065385
 H         2.861032        -0.948978        -1.231752
 H         3.116133         1.835803        -2.154512
 H         0.563597        -0.741970         1.126594
 H        -0.702885         0.365838         0.526675
 H        -0.270210        -1.050783        -0.340415
