19
Iteration:  2427
 C         1.214253         3.061072         0.230609
 C         2.034607         1.773513         0.039815
 C         3.047846         1.275255         1.033038
 O         3.628340         0.120967         0.494428
 C         2.729134        -0.073558        -0.770021
 C         2.536666         1.332373        -1.377930
 O         1.147047         0.902025        -1.819238
 C         1.256868         0.407782        -0.456505
 C         0.075232        -0.183938         0.265391
 H         0.616113         3.110781         1.084162
 H         1.981802         3.876935         0.220294
 H         0.454337         3.086544        -0.628615
 H         3.867480         1.992766         1.275568
 H         2.722752         0.954720         1.996976
 H         2.963521        -0.882431        -1.404047
 H         3.173588         1.651032        -2.220333
 H         0.317541        -0.742321         1.095859
 H        -0.684450         0.606939         0.478858
 H        -0.468930        -0.951146        -0.455018
