19
Iteration:   100
 C         1.087290         2.952497         0.188366
 C         2.090649         1.836687        -0.021649
 C         3.158426         1.349708         1.001024
 O         3.383447        -0.021288         0.653390
 C         2.685267        -0.089722        -0.727542
 C         2.623917         1.424436        -1.418458
 O         1.133246         0.945638        -1.845340
 C         1.316860         0.535881        -0.412379
 C         0.222505        -0.273023         0.211771
 H         0.751739         2.779821         1.227546
 H         1.463221         4.030812         0.134832
 H         0.265094         2.873526        -0.411952
 H         4.059650         1.891662         0.717325
 H         3.030851         1.464273         1.982371
 H         3.051290        -0.947773        -1.166651
 H         3.135787         1.916017        -2.271998
 H         0.610682        -0.635556         1.066906
 H        -0.721474         0.216221         0.244238
 H        -0.056064        -1.034910        -0.480699
