19
Iteration:  1564charge 0 multiplicity 1
 C         1.309922         3.079019         0.200828
 C         1.978293         1.723704         0.008846
 C         3.004134         1.287622         1.111491
 O         3.754289         0.260306         0.383869
 C         2.795339        -0.093736        -0.644985
 C         2.486725         1.267946        -1.372966
 O         1.122996         0.851567        -1.821758
 C         1.206885         0.355230        -0.449964
 C         0.000350        -0.182120         0.198753
 H         0.365443         3.071470         0.753663
 H         1.979232         3.829526         0.733985
 H         0.989339         3.371610        -0.757813
 H         3.663995         2.135944         1.565216
 H         2.424347         0.875300         1.914073
 H         3.022679        -1.044846        -1.081925
 H         3.247582         1.776878        -2.089090
 H         0.247082        -0.948040         1.036466
 H        -0.605408         0.576485         0.711582
 H        -0.661958        -0.506325        -0.591414
