19
Iteration:  2311charge 0 multiplicity 1
 C         1.255205         3.015880         0.295213
 C         2.045542         1.831902        -0.042233
 C         3.089071         1.381036         0.962767
 O         3.531212         0.044969         0.484840
 C         2.756538        -0.034374        -0.626732
 C         2.498493         1.317920        -1.373939
 O         1.148877         0.944557        -1.879224
 C         1.310644         0.377742        -0.368839
 C         0.053686        -0.269435         0.181772
 H         0.612252         2.854015         1.227784
 H         1.922861         3.932983         0.285423
 H         0.538841         3.178281        -0.439994
 H         3.957327         2.059348         0.850326
 H         2.862502         1.378503         2.088913
 H         2.887220        -0.997005        -1.148788
 H         3.128790         1.759606        -2.153583
 H         0.208717        -0.481208         1.303737
 H        -0.818585         0.450311         0.024559
 H        -0.208727        -1.235482        -0.248283
