19
Iteration:  3032
 C         1.238019         2.987499         0.226916
 C         2.027178         1.746245        -0.000353
 C         3.122784         1.353318         1.004795
 O         3.507467         0.019017         0.566444
 C         2.743127        -0.030820        -0.682367
 C         2.543283         1.353451        -1.390129
 O         1.158674         0.935674        -1.812711
 C         1.216061         0.465585        -0.487601
 C         0.097774        -0.216833         0.227179
 H         0.580244         3.046796         1.054634
 H         1.930215         3.882639         0.350923
 H         0.624935         3.179779        -0.596968
 H         3.971880         2.097470         0.840856
 H         2.772737         1.380579         2.045467
 H         3.070208        -0.817493        -1.444736
 H         3.106620         1.820763        -2.207361
 H         0.594832        -0.823970         0.995146
 H        -0.829995         0.344691         0.350470
 H        -0.259387        -1.109070        -0.405507
