19
Iteration:   540charge 0 multiplicity 1
 C         1.270170         3.073447         0.354474
 C         2.046777         1.806355        -0.032623
 C         3.075844         1.269588         0.916141
 O         3.362629        -0.058870         0.493494
 C         2.688512        -0.070649        -0.718563
 C         2.493258         1.495649        -1.378080
 O         1.192507         0.953936        -1.810508
 C         1.328579         0.471922        -0.448244
 C         0.242959        -0.281383         0.240257
 H         0.707731         2.763848         1.226531
 H         1.738136         4.037003         0.485296
 H         0.426706         3.264717        -0.434083
 H         4.027304         1.783394         0.919398
 H         2.671184         1.348653         1.946056
 H         2.906326        -0.880598        -1.249345
 H         3.089952         1.953799        -2.192125
 H         0.584814        -0.404893         1.200217
 H        -0.717042         0.210965        -0.002141
 H         0.007979        -1.397147        -0.209999
