19
Iteration:  2118charge 0 multiplicity 1
 C         1.181919         3.068967         0.194010
 C         1.953891         1.725600         0.072695
 C         3.026149         1.286633         1.086281
 O         3.668373         0.109848         0.379863
 C         2.860319        -0.075814        -0.741920
 C         2.543526         1.275981        -1.380403
 O         1.196896         0.915446        -1.818118
 C         1.207337         0.483371        -0.350843
 C         0.017426        -0.168357         0.231514
 H         0.611813         2.960633         1.125221
 H         1.682261         3.955866        -0.040107
 H         0.386218         3.107485        -0.717345
 H         3.719904         2.146273         1.370756
 H         2.567845         0.814986         1.948549
 H         2.838243        -1.110803        -1.305961
 H         3.348483         1.758260        -2.035935
 H         0.525299        -0.338814         1.234410
 H        -0.819754         0.433880         0.120204
 H        -0.103519        -1.106738        -0.206246
