19
Iteration:  3360
 C         1.249374         3.070558         0.226183
 C         1.964625         1.747336         0.020619
 C         3.051119         1.282543         1.081829
 O         3.610372         0.096371         0.403944
 C         2.805405        -0.018853        -0.790709
 C         2.472587         1.342833        -1.333513
 O         1.237993         0.845717        -1.785048
 C         1.328263         0.371311        -0.389585
 C        -0.039469        -0.148834         0.185412
 H         0.571690         2.880698         1.008163
 H         2.003978         3.887402         0.581078
 H         0.669202         3.427523        -0.507273
 H         3.894065         2.017074         1.203809
 H         2.518550         1.036243         2.111024
 H         2.760216        -0.881534        -1.440551
 H         3.141488         1.805097        -1.997992
 H         0.242095        -0.743945         1.089407
 H        -0.726130         0.705572         0.449868
 H        -0.542645        -0.794271        -0.587301
