19
Iteration:  3137
 C         1.185456         3.054321         0.256301
 C         2.058803         1.842812         0.065396
 C         3.178689         1.350012         1.100686
 O         3.425643        -0.015235         0.506588
 C         2.676677        -0.054220        -0.686763
 C         2.517204         1.319203        -1.483316
 O         1.183639         0.957199        -1.882387
 C         1.275768         0.459424        -0.450205
 C         0.172805        -0.252452         0.199657
 H         0.763411         3.042671         1.245797
 H         1.576418         3.995781         0.051219
 H         0.379384         2.937059        -0.557203
 H         4.070317         1.937163         1.267986
 H         2.661637         1.114123         2.091439
 H         2.907061        -0.821036        -1.313179
 H         3.309916         1.597060        -2.193424
 H         0.546719        -0.545308         1.210797
 H        -0.747562         0.322860         0.392259
 H         0.077908        -1.098937        -0.387762
