19
Iteration:  1687charge 0 multiplicity 1
 C         1.286265         3.049676         0.210162
 C         1.974599         1.779864        -0.005875
 C         3.043251         1.318509         1.082637
 O         3.554509         0.141730         0.438260
 C         2.746984        -0.046771        -0.673876
 C         2.497267         1.360537        -1.421993
 O         1.165156         0.834230        -1.818253
 C         1.315333         0.357861        -0.361371
 C         0.093562        -0.206040         0.188620
 H         0.715517         2.949548         1.241934
 H         1.987061         3.871730         0.433363
 H         0.626354         3.310368        -0.534028
 H         3.887205         2.083477         1.263060
 H         2.517616         1.057721         2.046066
 H         2.951238        -0.938747        -1.368777
 H         3.157145         1.816073        -2.156381
 H        -0.035914        -0.173028         1.285024
 H        -0.643900         0.489465        -0.325748
 H        -0.080678        -1.268101        -0.207204
