19
Iteration:  1744
 C         1.242125         3.017841         0.197826
 C         1.994063         1.730902         0.048958
 C         3.054933         1.327700         1.017535
 O         3.685268         0.191501         0.404968
 C         2.767359        -0.068847        -0.662315
 C         2.548458         1.315552        -1.350699
 O         1.175265         0.892946        -1.809961
 C         1.252368         0.364736        -0.390452
 C        -0.023686        -0.162348         0.184644
 H         0.277570         2.809299         0.842455
 H         1.837671         3.852953         0.435887
 H         0.825531         3.198924        -0.868047
 H         3.802827         2.079604         1.324714
 H         2.509444         1.005063         2.012098
 H         2.835376        -1.157727        -1.207842
 H         3.221563         1.807947        -1.971119
 H         0.320605        -0.559369         1.156293
 H        -0.840649         0.588412         0.410490
 H        -0.494859        -1.098845        -0.384835
