19
Iteration:   853
 C         1.240236         3.030746         0.221882
 C         2.096820         1.735069         0.012554
 C         3.037972         1.255532         1.136135
 O         3.599977         0.095267         0.375438
 C         2.764375        -0.042522        -0.763234
 C         2.502935         1.338333        -1.430777
 O         1.086635         0.973549        -1.708335
 C         1.322675         0.338771        -0.434119
 C         0.064705        -0.168093         0.209189
 H         0.689735         2.891273         1.119557
 H         1.828490         3.994792         0.345603
 H         0.492459         3.078676        -0.689490
 H         3.949179         1.910757         1.401746
 H         2.444560         1.080193         1.977893
 H         3.079538        -0.868992        -1.271831
 H         2.935086         2.031392        -2.263903
 H         0.241937        -0.580794         1.115650
 H        -0.562253         0.722654         0.363334
 H        -0.355808        -1.036325        -0.374342
