19
Iteration:  1812charge 0 multiplicity 1
 C         1.271943         3.099084         0.245438
 C         1.930767         1.745218         0.085149
 C         3.104715         1.415886         0.950042
 O         3.385497         0.062871         0.514934
 C         2.711220        -0.066894        -0.685637
 C         2.601388         1.281166        -1.408162
 O         1.254206         0.985513        -1.885387
 C         1.221843         0.459280        -0.432334
 C         0.161817        -0.376687         0.233532
 H         1.137821         3.300225         1.294127
 H         1.786867         3.949957        -0.262092
 H         0.173945         3.136475        -0.282662
 H         3.856875         2.161660         0.858044
 H         2.712429         1.351386         2.077503
 H         2.824844        -0.994335        -1.180471
 H         3.231453         1.768105        -2.129304
 H         0.798288        -0.818007         1.112013
 H        -0.677349         0.193337         0.675827
 H        -0.047537        -1.325670        -0.276346
