19
Iteration:  1655
 C         1.186734         3.050097         0.250606
 C         1.988042         1.777292        -0.066981
 C         3.158910         1.414451         0.944742
 O         3.409932         0.003137         0.573901
 C         2.629876        -0.084007        -0.607156
 C         2.571795         1.351707        -1.402881
 O         1.262846         1.005521        -1.889800
 C         1.236569         0.489945        -0.489886
 C         0.171172        -0.350852         0.248080
 H         0.957773         2.986173         1.441107
 H         1.626814         4.042157         0.058990
 H         0.188656         3.008765        -0.094887
 H         4.149364         1.886549         0.707666
 H         3.100312         1.411286         2.102553
 H         2.839553        -1.113101        -1.081181
 H         3.277439         1.684307        -2.062230
 H         0.544257        -0.239420         1.257687
 H        -0.903934        -0.048251         0.278872
 H         0.214456        -1.356009        -0.259216
