19
Iteration:   416charge 0 multiplicity 1
 C         1.202813         3.024831         0.274526
 C         2.059668         1.772216         0.053133
 C         3.013549         1.302253         1.104528
 O         3.445332        -0.020130         0.463378
 C         2.718086        -0.010775        -0.777680
 C         2.525230         1.322805        -1.450236
 O         1.182953         1.012092        -1.872992
 C         1.304816         0.481624        -0.514017
 C         0.233389        -0.251848         0.261664
 H         0.689091         2.956683         1.269682
 H         1.780819         4.074115         0.315275
 H         0.477216         3.104044        -0.502076
 H         3.947747         1.756541         1.258884
 H         2.561330         1.266630         2.186633
 H         2.763851        -1.076203        -1.317440
 H         3.130453         1.977792        -2.076360
 H         0.730215        -0.686477         1.275322
 H        -0.491220         0.445204         0.756186
 H        -0.252402        -1.201158        -0.227577
