19
Iteration:   232charge 0 multiplicity 1
 C         1.226200         3.067599         0.206066
 C         2.024908         1.794217         0.011011
 C         3.131724         1.383814         0.955735
 O         3.401045        -0.003080         0.575444
 C         2.722342        -0.018430        -0.677254
 C         2.474677         1.365892        -1.383051
 O         1.178598         0.986602        -1.802976
 C         1.293884         0.410956        -0.389291
 C         0.178019        -0.398273         0.168446
 H         0.354505         3.084017         0.843758
 H         2.005497         3.805310         0.649069
 H         1.015873         3.477420        -0.756098
 H         4.110371         1.982326         0.682884
 H         2.987960         1.511442         2.012915
 H         2.842536        -0.966277        -1.365394
 H         3.064322         2.072382        -2.082750
 H         0.471434        -0.895121         1.016004
 H        -0.638161         0.300842         0.403178
 H        -0.036058        -1.200196        -0.637265
