19
Iteration:  4693charge 0 multiplicity 1
 C         1.339894         3.101757         0.196865
 C         2.029123         1.845110         0.031763
 C         2.957835         1.264930         1.096138
 O         3.612282         0.077952         0.425930
 C         2.742697        -0.068176        -0.676144
 C         2.559145         1.333753        -1.346424
 O         1.087805         0.960893        -1.724862
 C         1.317338         0.427632        -0.395356
 C         0.057859        -0.291557         0.065487
 H         0.687051         2.914868         1.145942
 H         2.066858         3.903234         0.230928
 H         0.694550         3.328908        -0.776814
 H         3.714660         2.017683         1.453856
 H         2.572807         0.887730         2.047035
 H         2.954927        -0.947166        -1.273539
 H         2.942264         2.095933        -2.156394
 H         0.061193        -0.969355         1.025665
 H        -0.965720         0.058338        -0.142649
 H         0.108186        -1.087643        -0.615581
