19
Iteration:  1540
 C         1.218388         3.068573         0.233748
 C         1.951887         1.760409        -0.010317
 C         3.106219         1.345507         1.024872
 O         3.543543         0.079401         0.461238
 C         2.813957        -0.016712        -0.705783
 C         2.493768         1.341672        -1.422689
 O         1.199918         0.788403        -1.788569
 C         1.290851         0.420226        -0.377959
 C         0.065786        -0.205521         0.210623
 H         0.353878         2.945605         0.781135
 H         1.869629         3.682699         0.847725
 H         0.844523         3.558064        -0.727583
 H         3.957999         2.106406         1.113887
 H         2.691288         1.224964         1.985002
 H         3.022580        -0.972567        -1.329576
 H         3.159587         2.017679        -2.174575
 H         0.165099        -0.842353         1.157091
 H        -0.589631         0.609391         0.567820
 H        -0.575519        -0.612374        -0.595371
