19
Iteration:  1165
 C         1.316924         3.015626         0.167581
 C         2.013636         1.767474         0.030503
 C         2.917382         1.186768         1.105132
 O         3.660542         0.154347         0.418012
 C         2.781793         0.014764        -0.714652
 C         2.498188         1.389201        -1.478503
 O         1.120715         0.818820        -1.810568
 C         1.312953         0.477090        -0.372508
 C         0.087593        -0.202214         0.281977
 H         0.765970         2.967696         1.160555
 H         1.915810         3.890140         0.047009
 H         0.542571         3.099809        -0.619546
 H         3.680079         1.948982         1.514165
 H         2.380307         0.804601         1.903497
 H         2.905152        -0.996716        -1.240142
 H         2.882629         1.896018        -2.317008
 H         0.372002        -0.744744         1.154209
 H        -0.496968         0.595212         0.689346
 H        -0.500486        -0.636086        -0.429972
