19
Iteration:  2469charge 0 multiplicity 1
 C         1.135047         3.001712         0.371515
 C         2.074879         1.769420        -0.003020
 C         3.247313         1.398894         0.941474
 O         3.452472         0.029672         0.508201
 C         2.693168        -0.065070        -0.685169
 C         2.578793         1.329607        -1.426018
 O         1.181731         0.924827        -1.839224
 C         1.255558         0.450718        -0.417590
 C         0.037024        -0.217103         0.196891
 H         0.593690         2.842437         1.256704
 H         1.709371         3.832749         0.390637
 H         0.417838         3.203349        -0.518507
 H         4.181403         2.014163         0.709575
 H         2.919339         1.676739         1.928266
 H         3.039163        -0.982006        -1.270467
 H         3.354353         1.711807        -2.115567
 H         0.381602        -0.553855         1.127283
 H        -0.844266         0.395865         0.193053
 H        -0.083095        -1.252028        -0.321709
