19
Iteration:   320charge 0 multiplicity 1
 C         1.272977         3.094283         0.285919
 C         2.035754         1.759567         0.052928
 C         3.015562         1.184721         1.164431
 O         3.665724         0.176281         0.364106
 C         2.816547         0.052915        -0.747415
 C         2.439148         1.313127        -1.345079
 O         1.108011         0.803798        -1.786509
 C         1.347796         0.313430        -0.382821
 C        -0.017820        -0.117072         0.068664
 H         0.809903         3.405219         1.180040
 H         1.971755         3.928092        -0.052891
 H         0.560022         3.090141        -0.506957
 H         3.851133         1.902179         1.636774
 H         2.535457         0.664442         1.938167
 H         3.092303        -0.962524        -1.315963
 H         2.891116         2.014945        -2.125710
 H        -0.064106        -0.369184         1.067610
 H        -0.676492         0.709119         0.098576
 H        -0.184091        -1.098382        -0.502482
