19
Iteration:  4462charge 0 multiplicity 1
 C         1.233195         3.006015         0.257692
 C         1.989847         1.702298         0.076440
 C         3.036409         1.239139         1.078423
 O         3.588110         0.036405         0.500325
 C         2.763515        -0.047391        -0.715548
 C         2.532634         1.423947        -1.330325
 O         1.179584         0.971171        -1.865563
 C         1.274836         0.441589        -0.500968
 C         0.068846        -0.181389         0.141756
 H         0.651057         2.982491         1.229637
 H         1.887595         3.822799         0.184829
 H         0.597366         3.046409        -0.611231
 H         3.828627         1.989485         1.157805
 H         2.559967         1.295088         2.107093
 H         3.130989        -0.861512        -1.481622
 H         2.986713         2.049235        -2.129477
 H         0.404878        -0.458284         1.174173
 H        -0.892612         0.337295         0.321213
 H        -0.144416        -1.155676        -0.380242
