19
Iteration:   699
 C         1.225937         3.037880         0.271121
 C         2.038471         1.795399         0.023070
 C         3.011685         1.267913         1.029425
 O         3.473256         0.016741         0.440651
 C         2.788962        -0.049549        -0.790361
 C         2.591421         1.395755        -1.431318
 O         1.101489         0.956952        -1.761670
 C         1.342666         0.407261        -0.444225
 C         0.145373        -0.220003         0.269764
 H         0.723952         3.032070         1.212869
 H         1.952180         3.868208         0.283583
 H         0.525784         3.242380        -0.520729
 H         3.880010         1.975964         1.320645
 H         2.561245         1.030178         1.942884
 H         3.018133        -0.909737        -1.511078
 H         3.082904         2.009114        -2.226002
 H         0.484388        -0.999386         1.008894
 H        -0.584114         0.427224         0.790309
 H        -0.493775        -0.691997        -0.477874
