19
Iteration:  4720
 C         1.327164         3.090852         0.262045
 C         1.945316         1.797162         0.120061
 C         3.040864         1.314029         1.110248
 O         3.568874         0.086003         0.409648
 C         2.760345        -0.008573        -0.660269
 C         2.508517         1.296138        -1.372312
 O         1.178292         0.978109        -1.888531
 C         1.296085         0.386318        -0.404952
 C         0.021818        -0.322543         0.110302
 H         0.635187         3.167715         1.041808
 H         2.131515         3.866519         0.238628
 H         0.792186         3.178068        -0.661273
 H         3.857192         2.015677         1.270679
 H         2.816644         1.010902         2.192322
 H         3.034062        -0.942916        -1.211989
 H         3.074600         1.920000        -1.971347
 H         0.194282        -0.789120         1.010599
 H        -0.877814         0.270693         0.190405
 H        -0.331711        -1.180335        -0.602316
