19
Iteration:  1707charge 0 multiplicity 1
 C         1.300407         3.069834         0.194311
 C         1.989233         1.705538         0.040341
 C         2.968095         1.261820         1.073022
 O         3.741302         0.207458         0.412921
 C         2.892412        -0.030285        -0.723365
 C         2.463118         1.305895        -1.369319
 O         1.126091         0.809081        -1.774390
 C         1.267591         0.374063        -0.395550
 C        -0.080363        -0.152824         0.165643
 H         0.436336         3.206354         0.832951
 H         2.011757         3.876350         0.548342
 H         0.937497         3.276401        -0.723816
 H         3.708225         2.031106         1.465848
 H         2.457500         0.857866         1.862280
 H         3.118567        -0.966373        -1.180861
 H         3.068912         2.032407        -2.079128
 H         0.130975        -0.165673         1.272535
 H        -0.956038         0.497207         0.009321
 H        -0.308958        -1.142809        -0.228349
