19
Iteration:  2869
 C         1.226132         2.981333         0.216896
 C         2.033435         1.734279         0.027385
 C         3.147165         1.361621         1.012159
 O         3.423895         0.048746         0.520435
 C         2.687108        -0.101505        -0.634451
 C         2.507802         1.398274        -1.452088
 O         1.183211         1.003526        -1.893906
 C         1.255857         0.501041        -0.406023
 C         0.190605        -0.294853         0.237910
 H         0.631104         3.039114         1.253212
 H         1.942350         3.885155         0.132403
 H         0.510852         2.909706        -0.544186
 H         4.090657         2.005627         0.918671
 H         2.919013         1.258806         2.113667
 H         2.905032        -1.088700        -1.035358
 H         3.084645         1.905687        -2.190778
 H         0.473153        -0.574606         1.293386
 H        -0.697478         0.323865         0.070972
 H        -0.073458        -1.278939        -0.241416
