19
Iteration:  1766charge 0 multiplicity 1
 C         1.148590         3.000135         0.209233
 C         2.032747         1.802207        -0.019015
 C         3.121853         1.380519         1.053579
 O         3.449596         0.024507         0.538444
 C         2.797271        -0.076519        -0.700525
 C         2.508802         1.316929        -1.479372
 O         1.180569         0.897343        -1.772188
 C         1.309652         0.467818        -0.406365
 C         0.140968        -0.187974         0.194688
 H         0.603651         2.868355         1.226153
 H         1.809366         3.824781         0.257831
 H         0.405881         3.269713        -0.602398
 H         3.984658         2.054791         0.936485
 H         2.814485         1.400858         2.144396
 H         3.067022        -1.042414        -1.368926
 H         3.067093         1.879258        -2.152759
 H         0.405964        -0.794881         1.086657
 H        -0.722300         0.541141         0.393784
 H        -0.156330        -1.010448        -0.586356
