19
Iteration:  4438charge 0 multiplicity 1
 C         1.138744         3.025458         0.248165
 C         2.022107         1.745172         0.048754
 C         3.038290         1.248938         1.095677
 O         3.624176         0.153946         0.369603
 C         2.717721        -0.079146        -0.750518
 C         2.648458         1.262536        -1.357105
 O         1.195312         1.003599        -1.805172
 C         1.344253         0.426579        -0.355939
 C        -0.006529        -0.194652         0.132956
 H         0.580259         2.745120         1.125955
 H         1.813345         3.907098         0.486107
 H         0.625215         3.328841        -0.622660
 H         3.734237         2.058988         1.522588
 H         2.453051         0.894965         2.060261
 H         2.794412        -1.065278        -1.273404
 H         3.322590         1.790192        -2.018341
 H         0.043744        -0.610311         1.122117
 H        -0.865546         0.475169         0.229587
 H        -0.358083        -1.078633        -0.593303
