19
Iteration:  4401charge 0 multiplicity 1
 C         1.226116         3.017489         0.271315
 C         1.965043         1.690466         0.044824
 C         3.077824         1.312233         1.054875
 O         3.570322         0.057673         0.506026
 C         2.789261        -0.023475        -0.760370
 C         2.586849         1.409139        -1.389945
 O         1.191516         0.935961        -1.879396
 C         1.298587         0.391314        -0.355062
 C        -0.030821        -0.223615         0.137849
 H         0.513097         2.994456         1.094639
 H         1.992849         3.701695         0.700407
 H         0.470812         3.399182        -0.486756
 H         3.985423         1.948687         0.992873
 H         2.628952         1.249268         2.101342
 H         2.989584        -0.900508        -1.347491
 H         3.166811         2.109419        -2.038114
 H         0.199308        -0.837051         1.096228
 H        -0.729418         0.636866         0.253522
 H        -0.276085        -0.906391        -0.617895
