19
Iteration:  4624charge 0 multiplicity 1
 C         1.150838         2.944397         0.331744
 C         2.042386         1.753621         0.011784
 C         3.086569         1.316241         1.120278
 O         3.395516         0.005831         0.464911
 C         2.722755        -0.057110        -0.679352
 C         2.584050         1.439351        -1.460187
 O         1.204780         0.948585        -1.873060
 C         1.356597         0.470674        -0.489294
 C         0.154489        -0.187913         0.184891
 H         0.652279         2.768794         1.325747
 H         1.640933         4.046655         0.312717
 H         0.350874         3.182188        -0.301039
 H         4.064636         1.843595         1.031380
 H         2.821045         1.305917         2.138323
 H         3.064577        -1.082136        -1.119704
 H         3.226884         1.837716        -2.211124
 H         0.420558        -0.533429         1.156483
 H        -0.708779         0.487207         0.223202
 H        -0.229854        -1.098028        -0.450361
