19
Iteration:  2496charge 0 multiplicity 1
 C         1.230756         3.052125         0.281865
 C         1.998582         1.758109         0.032517
 C         3.127603         1.313976         0.951651
 O         3.545740         0.034033         0.494044
 C         2.682125        -0.048087        -0.707951
 C         2.516788         1.355722        -1.366693
 O         1.172409         0.916520        -1.843752
 C         1.257765         0.459698        -0.386879
 C         0.099370        -0.241851         0.197034
 H         0.578416         2.886115         1.225778
 H         2.030670         3.967720         0.302008
 H         0.402352         3.198172        -0.387944
 H         3.906340         2.072180         0.730407
 H         2.939887         1.630263         2.010224
 H         2.900495        -0.899414        -1.321323
 H         3.300447         1.693148        -2.064786
 H         0.306743        -0.521843         1.288292
 H        -0.772140         0.385079        -0.125715
 H         0.040045        -1.239273        -0.260660
