19
Iteration:   714charge 0 multiplicity 1
 C         1.316725         3.062832         0.148957
 C         1.999699         1.674114         0.072368
 C         2.977412         1.199466         1.173712
 O         3.612753         0.057324         0.386549
 C         2.814064         0.013893        -0.798704
 C         2.404947         1.385956        -1.379980
 O         1.087576         1.014099        -1.757485
 C         1.298046         0.346291        -0.468023
 C         0.152542        -0.207988         0.246015
 H         0.641088         3.196065         1.001690
 H         2.050733         3.914621         0.180922
 H         0.618502         3.194550        -0.804325
 H         3.780828         1.853666         1.405463
 H         2.420306         0.886357         2.117713
 H         3.142806        -0.801877        -1.323592
 H         3.017240         2.004114        -2.079557
 H         0.351508        -0.765111         1.115008
 H        -0.219038         0.725290         0.672437
 H        -0.488945        -0.867313        -0.466720
