19
Iteration:  4334charge 0 multiplicity 1
 C         1.248096         3.123615         0.228772
 C         2.074178         1.824099        -0.013182
 C         3.020006         1.287982         1.141089
 O         3.443681         0.055644         0.473556
 C         2.638312        -0.097305        -0.771065
 C         2.576460         1.358431        -1.369683
 O         1.182477         1.007770        -1.763860
 C         1.320968         0.454136        -0.465934
 C         0.164782        -0.398431         0.131420
 H         0.907032         3.241385         1.298449
 H         1.888326         3.934462        -0.016767
 H         0.372413         3.123516        -0.480150
 H         3.917436         1.923404         1.323191
 H         2.411814         1.122457         2.044859
 H         2.897038        -1.074736        -1.300915
 H         3.314384         1.976022        -1.963230
 H         0.586829        -0.625705         1.155576
 H        -0.761287         0.194475         0.182318
 H         0.012629        -1.276794        -0.358539
