19
Iteration:  1909
 C         1.133261         2.963916         0.266478
 C         2.000710         1.787288        -0.011961
 C         3.152293         1.424056         0.952831
 O         3.460496        -0.004402         0.561592
 C         2.756766        -0.043879        -0.716971
 C         2.544784         1.318074        -1.455293
 O         1.195501         0.898535        -1.864081
 C         1.314205         0.458779        -0.333360
 C         0.138024        -0.183667         0.213145
 H         0.461681         2.617713         1.074097
 H         1.727402         3.737876         0.631009
 H         0.462484         3.403625        -0.529671
 H         4.037002         2.116563         0.869862
 H         2.909323         1.290234         1.996313
 H         2.911334        -0.946585        -1.266622
 H         3.213291         1.877990        -2.024651
 H         0.215314        -0.418397         1.355932
 H        -0.687555         0.534770        -0.006580
 H        -0.144423        -1.038271        -0.420101
