19
Iteration:  1257
 C         1.272762         3.080635         0.269045
 C         1.985205         1.819145         0.086328
 C         3.185615         1.392473         0.963251
 O         3.568533         0.100132         0.439896
 C         2.705911        -0.093063        -0.635420
 C         2.468605         1.253839        -1.396417
 O         1.167191         0.899467        -1.796816
 C         1.243061         0.463858        -0.340696
 C         0.056601        -0.302996         0.103676
 H         0.829161         2.956924         1.254195
 H         1.929957         4.010267         0.148478
 H         0.447376         3.311592        -0.491864
 H         4.025190         2.056844         0.871718
 H         2.858939         1.380547         2.075054
 H         2.906205        -0.960394        -1.202708
 H         3.113866         1.759707        -2.237269
 H        -0.068080        -0.358237         1.206572
 H        -0.947180        -0.022351        -0.261073
 H         0.202021        -1.314666        -0.426969
