19
Iteration:  1099
 C         1.242725         3.051587         0.297827
 C         2.132206         1.840619         0.073535
 C         3.276984         1.455721         0.926812
 O         3.366250         0.067266         0.565654
 C         2.654248        -0.064094        -0.687583
 C         2.454439         1.281647        -1.414002
 O         1.120058         0.924140        -1.831484
 C         1.291052         0.489060        -0.355376
 C         0.157719        -0.394753         0.081585
 H         0.654012         2.981420         1.332980
 H         1.770334         4.009615         0.163638
 H         0.516926         3.021476        -0.497506
 H         4.176309         2.151707         0.605107
 H         3.177923         1.396206         1.984424
 H         2.778853        -1.183995        -1.130835
 H         3.085773         1.706651        -2.117096
 H         0.505850        -1.031146         0.914795
 H        -0.624798         0.217196         0.483277
 H        -0.259556        -0.865762        -0.735579
