19
Iteration:   504
 C         1.249101         3.017075         0.398572
 C         1.975860         1.769356         0.086657
 C         3.210849         1.410012         0.913974
 O         3.518678         0.104628         0.463471
 C         2.671497        -0.108796        -0.660169
 C         2.581130         1.253518        -1.380158
 O         1.183591         1.028101        -1.810644
 C         1.190826         0.436700        -0.481786
 C         0.043509        -0.301430         0.086398
 H         0.746796         2.805358         1.362898
 H         1.901079         3.968313         0.596710
 H         0.452700         3.122655        -0.378532
 H         4.069021         1.969570         0.657123
 H         3.025459         1.542620         2.078512
 H         2.891263        -1.092302        -1.208224
 H         3.343516         1.612646        -2.110405
 H         0.348942        -0.961164         0.943327
 H        -0.687250         0.340211         0.593689
 H        -0.322761        -0.962947        -0.725564
