19
Iteration:   144charge 0 multiplicity 1
 C         1.155607         2.965829         0.256992
 C         1.947744         1.702399        -0.023759
 C         3.052848         1.288630         1.017111
 O         3.545002         0.088064         0.487794
 C         2.788985        -0.026489        -0.648980
 C         2.598162         1.361796        -1.375824
 O         1.228314         0.958499        -1.927430
 C         1.275273         0.427530        -0.481968
 C         0.081206        -0.201652         0.301569
 H         1.153370         3.156563         1.341129
 H         1.597701         3.882822        -0.258629
 H         0.167119         2.908271        -0.046451
 H         3.866364         2.074412         0.961386
 H         2.797787         1.171542         2.017549
 H         2.917654        -0.959712        -1.182993
 H         3.267615         2.072862        -1.901020
 H         0.239239        -0.292706         1.334616
 H        -0.810029         0.368415         0.108685
 H        -0.282370        -1.165577        -0.070036
