19
Iteration:  3020charge 0 multiplicity 1
 C         1.198353         2.964724         0.203518
 C         1.966770         1.719684         0.044510
 C         3.083163         1.399583         0.959555
 O         3.478261         0.025307         0.543211
 C         2.733128        -0.137304        -0.703944
 C         2.524071         1.348452        -1.349602
 O         1.186030         1.014484        -1.915984
 C         1.302698         0.465642        -0.416845
 C         0.146994        -0.221322         0.232737
 H         0.766172         2.830626         1.116824
 H         1.972664         3.817172         0.277450
 H         0.524892         3.150624        -0.618600
 H         3.974146         2.057342         0.753230
 H         2.966283         1.372614         2.019389
 H         2.927130        -1.143181        -1.090068
 H         3.193708         2.085507        -1.803885
 H         0.492158        -0.602623         1.240264
 H        -0.604794         0.444246         0.731710
 H        -0.226902        -0.943130        -0.487183
