19
Iteration:   636
 C         1.273894         2.974654         0.382975
 C         2.037795         1.773136        -0.006638
 C         3.185780         1.419901         0.901613
 O         3.481395        -0.003606         0.518501
 C         2.726784        -0.089488        -0.688403
 C         2.463644         1.460201        -1.354097
 O         1.133510         0.897475        -1.781863
 C         1.324104         0.399815        -0.425458
 C         0.034615        -0.216694         0.108853
 H         0.869085         2.804314         1.351302
 H         2.039092         3.839325         0.481669
 H         0.414902         3.273970        -0.390461
 H         4.008959         2.060392         0.644033
 H         3.069396         1.367966         2.014113
 H         3.047035        -0.873882        -1.313969
 H         3.083918         1.962240        -2.150816
 H         0.194781        -0.671687         1.033163
 H        -0.779955         0.530783        -0.018179
 H        -0.267402        -1.077482        -0.639724
