19
Iteration:  2461charge 0 multiplicity 1
 C         1.181508         2.936283         0.317812
 C         2.043666         1.813844         0.003655
 C         3.202296         1.381258         0.928094
 O         3.480156         0.047883         0.568157
 C         2.699686        -0.049604        -0.740401
 C         2.549604         1.302549        -1.412110
 O         1.174369         0.930755        -1.824212
 C         1.288695         0.464452        -0.439428
 C         0.072058        -0.222435         0.218793
 H         0.773134         2.708456         1.278936
 H         1.668810         3.984794         0.527966
 H         0.448110         3.148542        -0.517519
 H         4.064102         2.035763         0.642637
 H         2.917670         1.480019         2.013521
 H         2.875034        -0.853102        -1.344942
 H         3.309784         1.668120        -2.142862
 H         0.177794        -0.538759         1.225187
 H        -0.842494         0.442397         0.236514
 H        -0.232591        -1.071687        -0.518683
