19
Iteration:  1104charge 0 multiplicity 1
 C         1.233083         3.037286         0.267953
 C         2.100746         1.847378         0.101013
 C         3.309867         1.461289         0.927068
 O         3.403558         0.076306         0.530583
 C         2.674096        -0.095121        -0.690481
 C         2.468606         1.282903        -1.357095
 O         1.122726         0.924504        -1.868996
 C         1.264551         0.507426        -0.314992
 C         0.123993        -0.378679         0.092321
 H         0.834595         3.108200         1.219947
 H         1.910584         3.909802         0.254762
 H         0.398944         3.015203        -0.513429
 H         4.069879         2.132534         0.682035
 H         3.081113         1.431726         2.081786
 H         2.808988        -0.986212        -1.143503
 H         3.141559         1.667298        -2.242254
 H         0.432108        -1.204331         0.764186
 H        -0.762694         0.180882         0.607722
 H        -0.357716        -1.033120        -0.783122
