19
Iteration:   496charge 0 multiplicity 1
 C         1.230863         3.005366         0.395239
 C         2.049731         1.762106         0.037172
 C         3.153679         1.449783         0.910093
 O         3.574570         0.046758         0.434521
 C         2.683781        -0.103585        -0.640885
 C         2.502459         1.295851        -1.351579
 O         1.205419         0.986949        -1.763643
 C         1.252454         0.394538        -0.428843
 C         0.023731        -0.264931         0.078751
 H         0.691945         3.003349         1.319555
 H         1.931599         3.832793         0.402625
 H         0.501719         3.323807        -0.431025
 H         4.013066         2.157636         0.791520
 H         2.856529         1.291458         1.918059
 H         2.833747        -0.958185        -1.173702
 H         3.111641         1.914554        -2.060520
 H         0.279404        -1.042993         0.726589
 H        -0.771341         0.423873         0.417020
 H        -0.602508        -0.776597        -0.821582
