19
Iteration:  1135charge 0 multiplicity 1
 C         1.307025         3.112035         0.186109
 C         1.961600         1.766279         0.097796
 C         3.057816         1.358282         0.969046
 O         3.649934         0.126567         0.406898
 C         2.790112        -0.124966        -0.684995
 C         2.501582         1.333936        -1.311354
 O         1.136175         0.917395        -1.756730
 C         1.257661         0.370419        -0.403244
 C         0.013065        -0.308430         0.141257
 H         0.937399         3.314346         1.189625
 H         2.009891         3.899293        -0.059656
 H         0.428812         3.215308        -0.585087
 H         3.802010         2.146731         1.093021
 H         2.656645         1.169487         2.091132
 H         2.963637        -0.975187        -1.173685
 H         3.032186         1.940720        -2.125001
 H         0.267624        -1.071710         0.864359
 H        -0.504561         0.502332         0.799979
 H        -0.751606        -0.758175        -0.613865
