19
Iteration:  4451
 C         1.232943         2.962003         0.242321
 C         1.989205         1.733395         0.051811
 C         2.993662         1.284095         1.070787
 O         3.622926         0.047926         0.416391
 C         2.800130        -0.013348        -0.652645
 C         2.516915         1.340263        -1.391866
 O         1.232768         1.013206        -1.817794
 C         1.209315         0.475421        -0.433383
 C         0.048932        -0.222677         0.162028
 H         0.527324         2.987936         1.135480
 H         1.814220         3.835386         0.373607
 H         0.550881         3.076267        -0.587093
 H         3.833793         1.956558         1.246426
 H         2.582511         0.783267         1.999777
 H         3.019438        -1.020518        -1.243702
 H         3.240842         1.911708        -2.022489
 H         0.294318        -0.548632         1.188209
 H        -0.670552         0.594768         0.055237
 H        -0.290409        -1.080957        -0.494705
