19
Iteration:  4897
 C         1.256466         3.052338         0.301523
 C         1.974745         1.765141         0.019922
 C         3.082825         1.317283         0.975380
 O         3.483090        -0.004524         0.541267
 C         2.673714        -0.070571        -0.653873
 C         2.523636         1.415366        -1.270331
 O         1.206917         0.981828        -1.881737
 C         1.273032         0.466852        -0.544104
 C         0.132263        -0.326387         0.150386
 H         0.999159         3.150551         1.360928
 H         2.057851         3.850266         0.096533
 H         0.514713         3.305593        -0.374209
 H         3.778979         2.087056         0.659665
 H         2.871839         1.434811         2.095684
 H         2.990683        -0.731936        -1.435835
 H         3.150259         1.854872        -2.054779
 H         0.477888        -0.666050         1.151828
 H        -0.850251         0.127919         0.322593
 H         0.044879        -1.312000        -0.302962
