19
Iteration:  3761
 C         1.299454         3.046394         0.227745
 C         1.995924         1.779837         0.050858
 C         3.037764         1.195219         1.137050
 O         3.625776         0.128631         0.442918
 C         2.743665        -0.049702        -0.776811
 C         2.491367         1.376348        -1.392392
 O         1.195123         0.965163        -1.868533
 C         1.217148         0.434541        -0.412815
 C         0.026666        -0.288328         0.217474
 H         0.806732         3.320664         1.239651
 H         2.099130         3.707038         0.072996
 H         0.506959         3.386030        -0.547666
 H         3.813582         1.879081         1.471704
 H         2.411949         0.872817         2.002432
 H         3.016514        -1.020764        -1.348509
 H         3.257666         1.884110        -2.000920
 H         0.350030        -0.762909         1.155990
 H        -0.736188         0.504029         0.400045
 H        -0.320541        -1.020095        -0.435163
