19
Iteration:  4733
 C         1.251083         3.077687         0.255182
 C         1.965252         1.635119         0.096117
 C         3.062660         1.341634         1.042763
 O         3.531408         0.103392         0.467820
 C         2.702285        -0.085891        -0.734884
 C         2.558668         1.393216        -1.322458
 O         1.277161         0.962255        -1.863285
 C         1.203970         0.427622        -0.460855
 C         0.053650        -0.298267         0.177687
 H         0.786065         3.142069         1.230281
 H         2.049707         3.902701         0.363271
 H         0.645330         3.376673        -0.510599
 H         3.801063         2.162885         0.913682
 H         2.741791         1.159348         2.078541
 H         2.881983        -1.006672        -1.410573
 H         3.244130         1.930415        -1.942407
 H         0.329345        -0.785770         1.085399
 H        -0.733405         0.443234         0.328020
 H        -0.172633        -1.090098        -0.632739
