19
Iteration:  2523
 C         1.348588         3.140507         0.183559
 C         2.052601         1.728976         0.056157
 C         3.013801         1.283551         1.100220
 O         3.596564         0.126442         0.441205
 C         2.746489        -0.069249        -0.748269
 C         2.442301         1.362845        -1.411712
 O         1.137537         0.947981        -1.770772
 C         1.269457         0.368196        -0.448843
 C         0.080760        -0.305802         0.212590
 H         0.788914         3.131367         1.107463
 H         2.004165         3.892283         0.195985
 H         0.478674         3.162354        -0.543853
 H         3.838846         1.995858         1.321408
 H         2.518151         1.146425         2.034436
 H         2.995474        -1.105309        -1.218754
 H         2.940591         1.932846        -2.209240
 H         0.285686        -0.396598         1.251859
 H        -0.721717         0.401972         0.060608
 H        -0.237360        -1.279059        -0.234068
