19
Iteration:  2779charge 0 multiplicity 1
 C         1.229953         3.067458         0.205602
 C         1.981182         1.807879        -0.002543
 C         3.165575         1.353846         0.999102
 O         3.628171         0.048224         0.485432
 C         2.683620        -0.019961        -0.661536
 C         2.499409         1.328964        -1.354606
 O         1.185509         0.922322        -1.906909
 C         1.238990         0.420096        -0.347640
 C         0.040699        -0.315605         0.199608
 H         0.662998         3.031828         1.169176
 H         2.011478         3.881819         0.581290
 H         0.421621         3.268324        -0.562500
 H         4.091115         2.068276         1.011604
 H         2.727140         1.171708         1.997596
 H         2.979702        -0.835416        -1.160535
 H         3.149383         1.751679        -2.101570
 H         0.207613        -0.951085         1.151941
 H        -0.754289         0.451813         0.509790
 H        -0.503323        -0.900574        -0.495526
