19
Iteration:  1439charge 0 multiplicity 1
 C         1.404594         3.119861         0.207350
 C         1.972663         1.705635         0.082554
 C         2.938083         1.233915         1.132593
 O         3.675360         0.265116         0.361764
 C         2.803283        -0.005944        -0.712918
 C         2.454036         1.221785        -1.378986
 O         1.176892         0.880253        -1.821134
 C         1.247949         0.373708        -0.396942
 C        -0.010232        -0.244568         0.195753
 H         1.162867         3.385550         1.162032
 H         2.044696         3.770660        -0.236696
 H         0.477341         3.218206        -0.456750
 H         3.608382         2.034322         1.528031
 H         2.416865         0.763172         1.968187
 H         2.981041        -0.922194        -1.217970
 H         2.971307         1.878746        -2.144858
 H         0.095688        -0.264464         1.243593
 H        -0.890822         0.426121        -0.011398
 H        -0.140003        -1.287354        -0.220774
