19
Iteration:  4414
 C         1.204905         2.973060         0.292683
 C         2.017458         1.767139         0.064815
 C         3.088673         1.286059         1.069171
 O         3.629901         0.076551         0.430347
 C         2.791957        -0.015125        -0.649336
 C         2.497245         1.306395        -1.369213
 O         1.173452         0.924888        -1.823574
 C         1.271122         0.467148        -0.452269
 C         0.023758        -0.174698         0.058201
 H         0.486726         2.710679         1.023861
 H         1.816103         3.919025         0.568389
 H         0.854559         3.281777        -0.706095
 H         3.763931         2.147719         1.410495
 H         2.656986         0.857365         2.058451
 H         2.906922        -0.916896        -1.143934
 H         3.104966         1.899400        -2.032769
 H         0.199415        -0.628605         1.052984
 H        -0.799056         0.519193         0.305924
 H        -0.496794        -0.952009        -0.599289
