19
Iteration:  4653
 C         1.252089         3.046587         0.287351
 C         1.983160         1.710547         0.038251
 C         3.045016         1.355589         1.032050
 O         3.481128        -0.036206         0.462173
 C         2.799455        -0.057355        -0.672565
 C         2.579440         1.423433        -1.306175
 O         1.191854         1.000714        -1.903105
 C         1.223505         0.453496        -0.531968
 C         0.089731        -0.312384         0.196832
 H         0.650039         3.114721         1.162107
 H         1.834912         3.947496         0.264376
 H         0.381599         3.176701        -0.426950
 H         3.996301         1.891856         0.993944
 H         2.815251         1.383158         2.160045
 H         3.116215        -0.932202        -1.173359
 H         3.303697         2.036516        -1.851316
 H         0.499502        -0.286637         1.212809
 H        -0.833711         0.269134         0.312404
 H        -0.121484        -1.295264        -0.313017
