19
Iteration:  3372charge 0 multiplicity 1
 C         1.251547         3.018902         0.272984
 C         2.023868         1.744269         0.051964
 C         3.003420         1.331345         0.999189
 O         3.610927         0.100281         0.382800
 C         2.743702        -0.091366        -0.649831
 C         2.546754         1.334294        -1.355322
 O         1.163122         0.911479        -1.791142
 C         1.258634         0.361198        -0.413930
 C         0.048691        -0.166971         0.147763
 H         0.595962         3.025832         1.124742
 H         1.973081         3.884676         0.513472
 H         0.785321         3.234253        -0.621790
 H         3.853837         2.072432         1.102358
 H         2.644034         1.120832         2.078230
 H         3.222030        -0.815769        -1.226640
 H         3.129630         1.909128        -2.046564
 H         0.115771        -0.743714         1.057615
 H        -0.591503         0.706131         0.380862
 H        -0.548772        -0.786850        -0.646254
