19
Iteration:  2432
 C         1.199568         3.016804         0.237769
 C         2.039047         1.776286         0.032066
 C         3.059769         1.304920         1.015427
 O         3.611378         0.112118         0.501580
 C         2.712547        -0.116076        -0.739570
 C         2.509095         1.365731        -1.417612
 O         1.149822         0.906504        -1.797464
 C         1.295838         0.406721        -0.478310
 C         0.082746        -0.157213         0.233074
 H         0.505501         3.178413         1.176273
 H         2.057966         3.776237         0.282225
 H         0.462394         3.106642        -0.519938
 H         3.955044         1.920985         1.175627
 H         2.678474         1.114554         2.090627
 H         3.027072        -1.026517        -1.382216
 H         3.241606         1.715718        -2.160257
 H         0.306022        -0.746841         1.222546
 H        -0.758870         0.502649         0.501633
 H        -0.353975        -0.824349        -0.430153
