19
Iteration:  2361
 C         1.287658         3.097560         0.213991
 C         2.059768         1.783270        -0.006912
 C         3.127426         1.357836         0.979504
 O         3.454549         0.033106         0.541839
 C         2.679039        -0.088986        -0.698870
 C         2.501691         1.394615        -1.414254
 O         1.182103         0.959635        -1.796307
 C         1.266936         0.427421        -0.428250
 C         0.146251        -0.360048         0.228695
 H         0.717144         3.193161         1.093104
 H         2.071043         3.914184         0.233039
 H         0.420919         3.234889        -0.519829
 H         3.919472         2.127834         1.091964
 H         2.627041         1.376733         1.915160
 H         2.892695        -0.992609        -1.263644
 H         2.876333         1.973263        -2.268047
 H         0.451972        -0.702743         1.178464
 H        -0.815333         0.107474         0.404157
 H        -0.090653        -1.276612        -0.458892
