19
Iteration:  4208
 C         1.185629         3.002311         0.259864
 C         1.982943         1.798107         0.073967
 C         3.109566         1.250681         0.949313
 O         3.504966        -0.011512         0.529532
 C         2.699333        -0.014599        -0.696493
 C         2.540702         1.419991        -1.333563
 O         1.239433         0.987301        -1.895470
 C         1.342580         0.388635        -0.430193
 C         0.084047        -0.249388         0.176636
 H         0.646010         3.110540         1.247639
 H         1.919306         3.881779        -0.057214
 H         0.277618         3.017856        -0.394340
 H         3.839751         2.055624         0.960805
 H         2.790411         1.245386         1.991283
 H         2.975964        -0.822905        -1.277523
 H         3.020964         2.135126        -2.062845
 H         0.465544        -0.598472         1.137344
 H        -0.651421         0.525666         0.471483
 H        -0.446591        -1.136099        -0.338731
