19
Iteration:  1092charge 0 multiplicity 1
 C         1.254468         3.065029         0.330254
 C         2.092691         1.829128         0.006719
 C         3.248651         1.438776         0.903039
 O         3.362555         0.037256         0.590530
 C         2.644343        -0.049635        -0.656785
 C         2.480325         1.291941        -1.476727
 O         1.120534         0.939451        -1.762275
 C         1.289681         0.436737        -0.414444
 C         0.201997        -0.374821         0.112987
 H         0.680943         2.899240         1.196187
 H         1.636053         4.067921         0.226418
 H         0.492686         3.047604        -0.538694
 H         4.155405         1.883658         0.646713
 H         3.188448         1.567735         2.079535
 H         2.756390        -0.937644        -1.075466
 H         3.148206         1.906687        -2.183456
 H         0.545061        -0.936164         0.978960
 H        -0.651456         0.352648         0.438867
 H        -0.152163        -0.945296        -0.856132
