19
Iteration:  3996charge 0 multiplicity 1
 C         1.332240         3.175070         0.306513
 C         2.005205         1.811546         0.084149
 C         3.026884         1.314923         1.066659
 O         3.514825         0.051719         0.474947
 C         2.694012        -0.033255        -0.706279
 C         2.608116         1.321563        -1.457766
 O         1.073451         0.926041        -1.839521
 C         1.274108         0.497823        -0.413545
 C         0.133432        -0.390127         0.142740
 H         0.710296         2.952250         1.228775
 H         2.172523         3.985635         0.269572
 H         0.692133         3.202735        -0.602387
 H         3.828270         2.041852         1.218387
 H         2.546291         1.230626         2.064491
 H         2.703928        -1.012322        -1.307290
 H         3.306968         1.670564        -2.219453
 H         0.513658        -0.830724         1.093235
 H        -0.818097         0.105020         0.269696
 H         0.120223        -1.175531        -0.632121
