19
Iteration:  3324charge 0 multiplicity 1
 C         1.250467         3.015383         0.245046
 C         2.010162         1.749556         0.004113
 C         3.007520         1.325983         1.040888
 O         3.567691         0.092358         0.466882
 C         2.701595        -0.074478        -0.738458
 C         2.549674         1.291426        -1.364256
 O         1.183071         0.987059        -1.818189
 C         1.258790         0.396100        -0.423298
 C         0.136684        -0.174151         0.162144
 H         0.735626         2.811049         1.200398
 H         1.888751         3.883503         0.408830
 H         0.544648         3.296638        -0.612392
 H         3.795547         2.036001         1.329906
 H         2.556797         0.972651         2.046776
 H         2.785924        -1.115449        -1.283467
 H         3.167519         1.804407        -2.164592
 H         0.453387        -0.649589         1.189989
 H        -0.651607         0.592285         0.506432
 H        -0.183649        -1.076439        -0.302165
