19
Iteration:  2251
 C         1.192783         2.989787         0.163548
 C         1.996005         1.728365         0.014594
 C         3.047890         1.242256         1.048199
 O         3.605439         0.125803         0.440589
 C         2.766473         0.007951        -0.775994
 C         2.573289         1.320625        -1.370743
 O         1.206543         0.900142        -1.807759
 C         1.260845         0.472674        -0.369743
 C         0.031154        -0.187292         0.269979
 H         0.689099         3.053054         1.115721
 H         1.894694         3.929868         0.205940
 H         0.470308         3.023217        -0.808017
 H         3.841907         1.999623         1.240506
 H         2.531916         0.940991         1.980016
 H         2.821143        -0.992639        -1.330152
 H         3.184566         1.942539        -2.092224
 H         0.396831        -0.472088         1.264585
 H        -0.702597         0.521888         0.558631
 H        -0.453154        -1.073427        -0.202918
