19
Iteration:  4020charge 0 multiplicity 1
 C         1.308611         3.090340         0.218741
 C         1.999848         1.725087         0.030904
 C         2.957605         1.186088         1.091132
 O         3.596620         0.137548         0.401212
 C         2.780178        -0.055087        -0.669851
 C         2.472389         1.404297        -1.390587
 O         1.178245         0.959259        -1.803690
 C         1.249677         0.387771        -0.441550
 C         0.062064        -0.261943         0.196887
 H         0.987658         3.017095         1.220218
 H         2.248687         3.790624        -0.036754
 H         0.467310         3.225129        -0.578788
 H         3.699553         1.981507         1.399213
 H         2.415216         1.001708         2.066309
 H         3.217672        -0.904365        -1.312446
 H         3.141824         1.887319        -2.027210
 H         0.425564        -0.643824         1.215114
 H        -0.668230         0.567551         0.313622
 H        -0.217775        -1.008980        -0.432067
