19
Iteration:   452
 C         1.270373         3.029807         0.201957
 C         1.947629         1.704870         0.099947
 C         2.962641         1.223604         1.126543
 O         3.721520         0.153161         0.311876
 C         2.797841        -0.091964        -0.756820
 C         2.516579         1.369680        -1.345125
 O         1.163554         0.957537        -1.806016
 C         1.274028         0.392978        -0.379206
 C         0.012598        -0.173274         0.204222
 H         0.754931         3.116069         1.132068
 H         1.977494         3.852837         0.094560
 H         0.454415         3.101690        -0.592199
 H         3.771840         1.926424         1.533479
 H         2.438229         0.702884         1.895477
 H         3.044663        -0.950616        -1.328561
 H         3.181341         2.006018        -2.000888
 H         0.300547        -0.919315         0.912813
 H        -0.483977         0.702614         0.738405
 H        -0.891272        -0.596883        -0.483351
