19
Iteration:  4061charge 0 multiplicity 1
 C         1.135961         2.953942         0.262939
 C         2.009080         1.743755         0.039216
 C         3.082407         1.230665         1.001690
 O         3.624202         0.058466         0.478622
 C         2.736984        -0.029004        -0.662186
 C         2.553789         1.387835        -1.365976
 O         1.180924         0.965304        -1.841087
 C         1.331386         0.402803        -0.439966
 C         0.044198        -0.085099         0.183804
 H         0.591473         2.922905         1.259476
 H         1.595291         3.983900         0.066341
 H         0.347289         2.987104        -0.528955
 H         3.926941         1.854009         0.977092
 H         2.774191         0.860086         1.966389
 H         2.933897        -1.033052        -1.258452
 H         3.094383         1.901003        -2.149468
 H         0.396645        -0.542706         1.179815
 H        -0.839963         0.546546         0.365563
 H        -0.338902        -0.936073        -0.493223
