19
Iteration:  2745
 C         1.211694         3.053088         0.223240
 C         2.004666         1.775468         0.018846
 C         3.148993         1.362168         0.882927
 O         3.428821         0.014023         0.561222
 C         2.709437        -0.055825        -0.627643
 C         2.509893         1.338812        -1.392625
 O         1.146749         1.024022        -1.782116
 C         1.327834         0.408285        -0.405709
 C         0.173096        -0.338437         0.150666
 H         0.795188         2.892691         1.197630
 H         2.053206         3.859433         0.244991
 H         0.488711         3.505157        -0.581051
 H         4.119171         1.991076         0.793410
 H         2.863307         1.461173         1.944224
 H         2.889059        -0.908001        -1.180189
 H         3.024931         1.862924        -2.237712
 H         0.368607        -0.726811         1.182858
 H        -0.689734         0.384251         0.173496
 H        -0.072956        -1.273822        -0.376733
