19
Iteration:  2457charge 0 multiplicity 1
 C         1.218206         2.950593         0.296321
 C         2.047740         1.803205        -0.005865
 C         3.150846         1.401702         0.916972
 O         3.490369         0.040816         0.571698
 C         2.713185        -0.029347        -0.721143
 C         2.538181         1.294423        -1.398739
 O         1.170549         0.938791        -1.828290
 C         1.286618         0.462871        -0.421292
 C         0.093570        -0.215320         0.203475
 H         0.674386         2.644114         1.211226
 H         1.690062         3.790516         0.532680
 H         0.349517         3.024279        -0.429277
 H         4.054255         2.076233         0.750071
 H         3.051973         1.259487         2.002931
 H         2.822482        -1.011709        -1.380342
 H         3.137794         1.772229        -2.187552
 H         0.155094        -0.561291         1.248645
 H        -0.714715         0.486205         0.227531
 H        -0.292035        -0.988783        -0.486971
