19
Iteration:  4476charge 0 multiplicity 1
 C         1.231484         3.039418         0.269874
 C         1.981667         1.750344         0.068182
 C         3.096469         1.325080         1.084236
 O         3.407218         0.001231         0.536896
 C         2.764771         0.014166        -0.819641
 C         2.573456         1.429236        -1.332656
 O         1.157732         0.934439        -1.867064
 C         1.301649         0.376289        -0.510636
 C         0.142139        -0.287281         0.167216
 H         0.826077         3.142827         1.326541
 H         1.872216         3.914750         0.174344
 H         0.403369         3.322164        -0.476459
 H         3.959383         1.942296         1.081891
 H         2.823778         0.986190         2.044621
 H         2.978860        -0.912803        -1.354723
 H         3.340905         2.093273        -1.807022
 H         0.517988        -0.431954         1.243426
 H        -0.616955         0.548743         0.024367
 H        -0.169310        -1.168018        -0.277509
