19
Iteration:  2834charge 0 multiplicity 1
 C         1.220952         3.037420         0.208353
 C         1.992332         1.822244         0.027178
 C         2.992867         1.297806         1.048386
 O         3.606805         0.023224         0.403640
 C         2.797667        -0.099578        -0.690611
 C         2.523617         1.398841        -1.398288
 O         1.216015         0.915504        -1.844622
 C         1.254675         0.387978        -0.434316
 C         0.064299        -0.196489         0.294228
 H         0.665751         3.070586         1.175346
 H         1.790384         4.066243        -0.006072
 H         0.506089         3.057717        -0.634860
 H         3.889763         2.001041         1.296646
 H         2.462307         1.016366         1.975654
 H         3.090116        -0.974955        -1.069803
 H         2.887625         2.051406        -2.158713
 H         0.495043        -0.599594         1.293807
 H        -0.656625         0.613626         0.651821
 H        -0.365284        -0.925080        -0.314848
