19
Iteration:  2257
 C         1.174744         3.015901         0.164096
 C         1.964669         1.736357        -0.030767
 C         3.079376         1.261308         1.083666
 O         3.659611         0.131607         0.430743
 C         2.740400        -0.026223        -0.815971
 C         2.565018         1.288486        -1.334080
 O         1.210384         0.903410        -1.828704
 C         1.252459         0.451956        -0.342221
 C         0.032791        -0.166107         0.278407
 H         0.590025         3.028851         1.135956
 H         1.818528         3.830544         0.074671
 H         0.583631         3.180101        -0.664898
 H         3.824960         1.980847         1.459178
 H         2.495281         0.830727         1.937720
 H         2.837582        -1.037153        -1.377202
 H         3.140215         2.014444        -1.890170
 H         0.332397        -0.591159         1.285549
 H        -0.758129         0.666097         0.372702
 H        -0.407834        -1.023091        -0.190174
