19
Iteration:  1765
 C         1.149372         2.997761         0.201483
 C         2.032874         1.803998        -0.017242
 C         3.118219         1.377184         1.061430
 O         3.457845         0.030868         0.530693
 C         2.792143        -0.075358        -0.696850
 C         2.509968         1.313513        -1.470698
 O         1.174940         0.896855        -1.776614
 C         1.306797         0.463051        -0.404116
 C         0.143410        -0.189068         0.197915
 H         0.597792         2.872629         1.224823
 H         1.798674         3.820922         0.283991
 H         0.463169         3.263628        -0.574173
 H         3.979733         2.079558         0.937349
 H         2.809469         1.390062         2.098725
 H         3.073893        -1.037751        -1.385619
 H         3.091179         1.872762        -2.144694
 H         0.354845        -0.796516         1.078050
 H        -0.685784         0.582924         0.366966
 H        -0.160467        -1.006865        -0.591996
