19
Iteration:  1760
 C         1.170957         2.980718         0.198251
 C         2.033007         1.792688        -0.002390
 C         3.103156         1.370526         1.051147
 O         3.511305         0.067456         0.496456
 C         2.753651        -0.066264        -0.687200
 C         2.525868         1.297550        -1.404590
 O         1.141855         0.896088        -1.810264
 C         1.308721         0.431135        -0.393368
 C         0.137864        -0.201900         0.198403
 H         0.606131         2.910661         1.068509
 H         1.806516         3.925575         0.449373
 H         0.521255         3.245981        -0.704430
 H         3.922350         2.104977         0.989272
 H         2.687809         1.267324         2.097066
 H         3.029879        -0.836354        -1.266514
 H         3.215831         1.848309        -2.168660
 H         0.142002        -0.779263         1.143993
 H        -0.481484         0.669720         0.236864
 H        -0.218143        -0.851911        -0.527007
