19
Iteration:  3177
 C         1.180767         2.970227         0.245606
 C         1.999665         1.712751         0.093922
 C         3.086749         1.357155         1.051992
 O         3.488377         0.036475         0.495813
 C         2.768231        -0.040013        -0.715337
 C         2.518075         1.301539        -1.390144
 O         1.187616         0.966144        -1.880129
 C         1.294150         0.419426        -0.463587
 C         0.138401        -0.136445         0.197141
 H         0.460747         3.099531         1.118999
 H         1.978150         3.724531         0.385938
 H         0.645301         3.223789        -0.669875
 H         3.940846         2.093230         0.979761
 H         2.790474         1.208879         2.094273
 H         3.026032        -0.949323        -1.238669
 H         3.129833         1.783001        -2.137070
 H         0.507476        -0.733899         1.012734
 H        -0.563856         0.617071         0.574067
 H        -0.483006        -0.945959        -0.389603
