19
Iteration:   272
 C         1.129965         2.964166         0.287297
 C         2.053880         1.783346         0.019049
 C         3.071604         1.377200         1.027168
 O         3.436536         0.018781         0.491514
 C         2.660515        -0.094711        -0.732429
 C         2.564690         1.293792        -1.425372
 O         1.265453         1.044593        -1.923554
 C         1.302802         0.486750        -0.477712
 C         0.186567        -0.255345         0.292733
 H         0.679890         2.865137         1.320811
 H         1.506246         4.001980         0.254372
 H         0.308639         2.861534        -0.437274
 H         4.003531         1.875669         0.978162
 H         2.647247         1.394553         2.106368
 H         2.962029        -0.972894        -1.122926
 H         3.233938         1.753087        -2.064140
 H         0.609049        -0.747920         1.316950
 H        -0.486304         0.506241         0.762468
 H        -0.254107        -1.030088        -0.282805
