19
Iteration:  1372charge 0 multiplicity 1
 C         1.170352         2.950779         0.199097
 C         2.039491         1.818197         0.047107
 C         3.228836         1.395585         0.874796
 O         3.372872         0.011728         0.600562
 C         2.719585        -0.076250        -0.647344
 C         2.525768         1.377310        -1.385983
 O         1.176212         0.935815        -1.829835
 C         1.261006         0.466005        -0.470241
 C         0.190078        -0.241494         0.208027
 H         0.437398         2.506424         0.853519
 H         1.601719         3.780294         0.628232
 H         0.703425         3.262208        -0.694118
 H         4.172344         1.867638         0.581942
 H         3.120016         1.528133         1.965153
 H         2.855497        -0.987621        -1.212244
 H         3.124556         2.029364        -1.975722
 H         0.608819        -0.675228         1.126719
 H        -0.603726         0.429297         0.663590
 H        -0.350018        -1.002464        -0.354243
