19
Iteration:   805
 C         1.194888         3.045035         0.514337
 C         2.022097         1.809782         0.001386
 C         3.279040         1.419628         0.802599
 O         3.350287         0.012615         0.557070
 C         2.693361        -0.085413        -0.693139
 C         2.510273         1.395303        -1.398204
 O         1.232172         0.938739        -1.914372
 C         1.272097         0.428364        -0.520107
 C         0.080969        -0.318244         0.204353
 H         0.792198         2.875647         1.662803
 H         1.838564         3.909464         0.533363
 H         0.428825         3.162393        -0.161874
 H         4.103214         1.894692         0.404451
 H         3.285840         1.490989         1.981428
 H         2.909971        -1.088109        -1.284279
 H         3.341398         1.738063        -1.910573
 H         0.125934        -0.347927         1.400494
 H        -0.747710         0.315043        -0.048644
 H         0.043785        -1.324213         0.015910
