19
Iteration:  2260
 C         1.179541         3.026425         0.175117
 C         1.962460         1.747644        -0.018680
 C         3.072780         1.270273         1.102839
 O         3.688718         0.126025         0.408826
 C         2.731634        -0.059847        -0.785897
 C         2.544393         1.296621        -1.330540
 O         1.204968         0.907016        -1.843987
 C         1.249632         0.423924        -0.352246
 C         0.031872        -0.146001         0.291668
 H         0.550245         3.016536         1.092145
 H         1.836546         3.833323         0.052711
 H         0.434696         3.270718        -0.746022
 H         3.810410         1.981541         1.551397
 H         2.535307         0.863088         1.889504
 H         2.911157        -1.115546        -1.453204
 H         3.205199         2.041399        -1.894510
 H         0.278698        -0.609660         1.303220
 H        -0.695003         0.623354         0.260058
 H        -0.344010        -0.961733        -0.264434
