19
Iteration:  4974charge 0 multiplicity 1
 C         1.212008         3.044701         0.268194
 C         2.006049         1.705929         0.122890
 C         3.068006         1.288926         1.095178
 O         3.573724         0.157954         0.397439
 C         2.729289        -0.053672        -0.809434
 C         2.599139         1.279035        -1.394246
 O         1.213527         0.934446        -1.823364
 C         1.328950         0.413223        -0.424092
 C        -0.006306        -0.199905         0.194491
 H         0.320321         2.869629         0.979671
 H         1.827967         3.967211         0.496914
 H         0.719263         3.231116        -0.688937
 H         3.761951         2.032622         1.454892
 H         2.538928         0.999974         2.076456
 H         2.805794        -0.872032        -1.498748
 H         3.299001         1.908377        -2.046265
 H         0.279284        -0.840474         1.141311
 H        -0.753850         0.552638         0.531707
 H        -0.549984        -0.885438        -0.453815
