19
Iteration:   182
 C         1.358648         3.151671         0.211093
 C         1.962340         1.766890         0.047826
 C         2.963450         1.205419         1.101081
 O         3.682247         0.243216         0.374675
 C         2.783723         0.026595        -0.677300
 C         2.509141         1.321684        -1.434709
 O         1.108179         0.794009        -1.767178
 C         1.270473         0.381126        -0.329600
 C         0.020342        -0.282380         0.096787
 H         0.892241         3.145262         1.214811
 H         2.097933         3.891983         0.255862
 H         0.574648         3.412829        -0.637417
 H         3.644356         1.834319         1.616937
 H         2.314659         0.712223         1.966544
 H         3.076612        -1.002617        -0.984712
 H         3.062681         1.899336        -2.207472
 H        -0.134936        -0.638747         1.208178
 H        -0.620266         0.618335         0.035414
 H         0.112776        -1.138897        -0.555021
