19
Iteration:  4885charge 0 multiplicity 1
 C         1.331963         3.066379         0.298842
 C         1.952279         1.765628         0.047677
 C         3.083129         1.381375         0.991238
 O         3.473713         0.064283         0.470093
 C         2.682518        -0.024666        -0.635831
 C         2.577640         1.318673        -1.364700
 O         1.206722         0.986275        -1.852640
 C         1.151618         0.470491        -0.460475
 C         0.146146        -0.386070         0.109159
 H         0.927450         3.011806         1.320718
 H         2.064796         3.952854         0.256360
 H         0.464018         3.197630        -0.288065
 H         4.000158         1.931411         1.070537
 H         2.786777         1.120329         2.051844
 H         2.816245        -1.019935        -1.125974
 H         3.299081         1.853709        -1.917978
 H         0.519066        -0.488091         1.099334
 H        -0.851849         0.069838         0.104161
 H         0.059564        -1.355094        -0.467090
