19
Iteration:  4926
 C         1.185264         2.968301         0.256837
 C         2.055660         1.800437         0.040570
 C         3.106510         1.278869         1.070306
 O         3.400931         0.018909         0.473114
 C         2.763787         0.010144        -0.728564
 C         2.541150         1.376834        -1.391243
 O         1.191532         0.964285        -1.817852
 C         1.362186         0.433773        -0.466203
 C         0.114662        -0.243021         0.207268
 H         0.706202         2.948145         1.251006
 H         1.781595         3.924869         0.101228
 H         0.379472         3.195885        -0.515005
 H         3.951673         1.999953         1.126299
 H         2.809183         1.171658         2.106055
 H         3.086710        -0.841251        -1.405850
 H         3.055890         1.798188        -2.194321
 H         0.325609        -0.708293         1.118150
 H        -0.653412         0.529059         0.376046
 H        -0.391194        -1.073990        -0.496396
