19
Iteration:  2434
 C         1.202986         3.002758         0.251006
 C         2.033386         1.769645         0.026058
 C         3.069174         1.319550         1.019638
 O         3.597798         0.099301         0.491808
 C         2.712320        -0.120954        -0.715629
 C         2.500549         1.369460        -1.432712
 O         1.150719         0.911859        -1.793534
 C         1.311010         0.407650        -0.472440
 C         0.084945        -0.147893         0.223540
 H         0.561760         3.153690         1.178039
 H         1.951235         3.715846         0.287069
 H         0.457611         3.153654        -0.570708
 H         3.994021         1.952737         1.122342
 H         2.627966         1.204306         2.072726
 H         3.051181        -1.098909        -1.359373
 H         3.241783         1.786766        -2.130654
 H         0.319677        -0.708898         1.215988
 H        -0.736304         0.477025         0.498274
 H        -0.334130        -0.836553        -0.462634
