19
Iteration:  2868charge 0 multiplicity 1
 C         1.219466         2.980938         0.218331
 C         2.024125         1.737039         0.030618
 C         3.144657         1.346849         1.010837
 O         3.428000         0.054219         0.520652
 C         2.681318        -0.100632        -0.646439
 C         2.522519         1.398489        -1.447829
 O         1.181842         1.001996        -1.896031
 C         1.259208         0.491554        -0.402454
 C         0.187263        -0.290102         0.239532
 H         0.644701         3.038007         1.235484
 H         1.960917         3.896365         0.112942
 H         0.490062         2.934736        -0.557326
 H         4.102742         2.017424         0.925332
 H         2.933475         1.270820         2.108761
 H         2.888814        -1.047067        -0.996307
 H         3.091559         1.894461        -2.190270
 H         0.503645        -0.584939         1.305960
 H        -0.714825         0.343158         0.079889
 H        -0.044881        -1.248530        -0.233217
