19
Iteration:  4557
 C         1.268701         3.060442         0.190713
 C         1.977192         1.762176         0.049659
 C         3.014234         1.248997         1.086811
 O         3.627238         0.032647         0.462940
 C         2.814182         0.027468        -0.656094
 C         2.495522         1.430344        -1.302578
 O         1.131409         0.935362        -1.826804
 C         1.270283         0.356657        -0.430790
 C         0.005104        -0.282275         0.114936
 H         0.636607         3.134648         1.075183
 H         2.286580         3.746737         0.353928
 H         0.788721         3.418378        -0.729254
 H         3.798433         2.050244         1.185113
 H         2.901048         0.967806         2.082869
 H         3.101227        -0.690144        -1.445748
 H         3.127448         2.015877        -1.954223
 H         0.211936        -0.824688         1.004757
 H        -0.772792         0.459485         0.315396
 H        -0.281215        -0.836539        -0.876110
