19
Iteration:  4062charge 0 multiplicity 1
 C         1.125044         2.949724         0.280207
 C         2.030220         1.744481         0.035371
 C         3.087556         1.237583         0.989652
 O         3.614600         0.056949         0.486906
 C         2.727933        -0.023163        -0.664544
 C         2.563643         1.384376        -1.376626
 O         1.178297         0.967781        -1.839089
 C         1.328029         0.399408        -0.436122
 C         0.048133        -0.097383         0.178890
 H         0.579031         2.897826         1.244137
 H         1.615667         4.024926         0.059153
 H         0.331506         2.977872        -0.569437
 H         3.932828         1.891886         0.986508
 H         2.785392         0.872332         1.965635
 H         2.883366        -1.048583        -1.240927
 H         3.092540         1.882341        -2.120302
 H         0.388746        -0.547257         1.205259
 H        -0.825125         0.580434         0.334644
 H        -0.308197        -0.885654        -0.492046
