19
Iteration:  1198charge 0 multiplicity 1
 C         1.174377         3.030192         0.222189
 C         1.965555         1.741544         0.034523
 C         3.045605         1.320979         1.031947
 O         3.510836         0.061572         0.453649
 C         2.683767        -0.040814        -0.731400
 C         2.608529         1.305240        -1.435154
 O         1.202427         0.969944        -1.909728
 C         1.283328         0.440248        -0.433947
 C         0.179586        -0.221217         0.375346
 H         0.489703         2.838535         1.103127
 H         1.755739         3.832993         0.573453
 H         0.494345         3.176222        -0.656444
 H         3.986753         1.936789         0.931255
 H         2.772607         1.242084         2.021447
 H         2.860870        -0.989098        -1.298732
 H         3.237474         1.749151        -2.173862
 H         0.572005        -0.450030         1.341088
 H        -0.563502         0.554731         0.449847
 H        -0.225936        -1.128322         0.055258
