19
Iteration:  1329charge 0 multiplicity 1
 C         1.227111         3.046508         0.172948
 C         2.061422         1.793023        -0.005656
 C         3.007537         1.286287         1.078114
 O         3.513815         0.074601         0.431731
 C         2.714816        -0.051364        -0.685793
 C         2.529454         1.332858        -1.403162
 O         1.202191         0.919245        -1.849780
 C         1.243410         0.451889        -0.420693
 C         0.183629        -0.230575         0.301230
 H         0.684938         3.058101         1.097861
 H         1.767209         3.961655         0.105954
 H         0.409278         2.994763        -0.583417
 H         3.853582         2.035778         1.286330
 H         2.484258         1.067039         2.006398
 H         2.914859        -0.921008        -1.288048
 H         3.154828         1.821012        -2.129243
 H         0.698387        -0.698447         1.098294
 H        -0.620996         0.371653         0.769960
 H        -0.327167        -0.954576        -0.305367
