19
Iteration:  4636
 C         1.157672         2.991246         0.310735
 C         1.977576         1.762375         0.027968
 C         3.068838         1.301516         0.971726
 O         3.401757        -0.012429         0.568530
 C         2.732281        -0.019170        -0.770798
 C         2.562165         1.406661        -1.389410
 O         1.272727         0.989667        -1.872988
 C         1.309671         0.399016        -0.429005
 C         0.170635        -0.216821         0.204135
 H         0.802553         2.930205         1.386878
 H         1.933752         3.861332         0.367877
 H         0.380997         3.036191        -0.417099
 H         3.950379         1.997679         0.894570
 H         2.737540         1.210572         1.965165
 H         2.887566        -0.874317        -1.543546
 H         3.176632         1.972798        -2.110014
 H         0.387910        -0.473007         1.243454
 H        -0.638937         0.530379         0.179769
 H        -0.076666        -1.146920        -0.381112
