19
Iteration:   612charge 0 multiplicity 1
 C         1.279334         3.080142         0.281155
 C         2.025111         1.761420         0.108401
 C         3.101368         1.208688         1.101531
 O         3.671759         0.104103         0.368477
 C         2.746400         0.007921        -0.714417
 C         2.446164         1.277382        -1.412240
 O         1.111814         0.935400        -1.775091
 C         1.290317         0.428016        -0.366787
 C        -0.007626        -0.210452         0.106527
 H         0.652179         3.130226         1.145372
 H         1.969385         3.970598         0.257317
 H         0.629451         3.119514        -0.606323
 H         3.909882         1.960742         1.208894
 H         2.804956         0.859013         2.050182
 H         2.976212        -0.894927        -1.404919
 H         2.926309         1.911465        -2.185041
 H         0.098496        -0.410474         1.201820
 H        -0.828899         0.424698        -0.244843
 H        -0.162816        -1.159839        -0.345779
