19
Iteration:  4597charge 0 multiplicity 1
 C         1.179117         2.966621         0.299240
 C         2.011582         1.728601        -0.025020
 C         3.020818         1.269906         1.032797
 O         3.620063         0.065302         0.473454
 C         2.706487        -0.068537        -0.713687
 C         2.566918         1.353147        -1.369617
 O         1.238078         1.019244        -1.837598
 C         1.296823         0.471688        -0.396160
 C         0.039612        -0.187619         0.166565
 H         0.624190         2.697345         1.186465
 H         1.599236         3.921547         0.421867
 H         0.428568         3.315930        -0.498749
 H         3.866376         1.970465         1.150367
 H         2.400987         1.181405         2.034079
 H         3.013080        -0.890761        -1.259510
 H         3.384393         1.514179        -2.115330
 H         0.309050        -0.892980         1.047185
 H        -0.808805         0.508121         0.332347
 H        -0.314035        -0.899134        -0.584779
