19
Iteration:  1833charge 0 multiplicity 1
 C         1.309960         3.120062         0.146159
 C         2.006590         1.786086        -0.027430
 C         3.003863         1.321526         1.118920
 O         3.585849         0.070866         0.501857
 C         2.746124        -0.041817        -0.681319
 C         2.481703         1.369212        -1.366571
 O         1.107871         0.902074        -1.833943
 C         1.267473         0.394336        -0.415237
 C         0.142611        -0.311906         0.184462
 H         1.144504         3.299657         1.197962
 H         1.954876         3.931086        -0.124940
 H         0.352990         3.324408        -0.459304
 H         3.875570         1.938431         1.264473
 H         2.438175         1.110936         2.098201
 H         2.969312        -0.912654        -1.286326
 H         3.040517         1.914200        -2.066058
 H         0.413987        -0.858923         1.151443
 H        -0.708029         0.384401         0.340173
 H        -0.001073        -1.169487        -0.491922
