19
Iteration:  2847charge 0 multiplicity 1
 C         1.155315         3.090989         0.187491
 C         1.993210         1.746299         0.006960
 C         3.030884         1.380946         1.007896
 O         3.536273        -0.018648         0.429389
 C         2.772291        -0.077357        -0.735144
 C         2.572033         1.303510        -1.321781
 O         1.218102         0.941011        -1.805843
 C         1.231487         0.481092        -0.453891
 C         0.141926        -0.238065         0.282826
 H         0.674034         3.103297         1.274174
 H         1.827443         4.022986         0.142177
 H         0.357325         3.075252        -0.482205
 H         3.921585         2.062542         1.067382
 H         2.671858         1.116975         2.026188
 H         2.953894        -0.761853        -1.518470
 H         3.318633         1.775075        -1.903929
 H         0.557680        -0.576707         1.274764
 H        -0.695598         0.489245         0.392034
 H        -0.339812        -1.136678        -0.127316
