19
Iteration:  3959charge 0 multiplicity 1
 C         1.333848         3.067702         0.283660
 C         2.004325         1.717825         0.037902
 C         3.130189         1.388589         0.939288
 O         3.444634        -0.058252         0.623252
 C         2.687133        -0.049059        -0.662779
 C         2.522920         1.485824        -1.381133
 O         1.114054         0.991667        -1.880042
 C         1.223136         0.455800        -0.483100
 C         0.164074        -0.388074         0.149344
 H         0.522783         3.214191         1.077089
 H         1.912287         3.854186         0.559127
 H         0.834549         3.386229        -0.614984
 H         3.959370         1.978095         0.546076
 H         3.119276         1.588304         2.000006
 H         3.043994        -0.914031        -1.127536
 H         3.336835         2.032853        -1.982084
 H         0.437632        -0.794828         1.115245
 H        -0.830867         0.092067         0.289617
 H         0.009777        -1.337432        -0.530788
