19
Iteration:  2453
 C         1.223060         2.950514         0.269497
 C         2.053869         1.769444        -0.019217
 C         3.115279         1.424209         0.921219
 O         3.496220         0.030033         0.547168
 C         2.734263        -0.039808        -0.690342
 C         2.528534         1.301157        -1.398415
 O         1.165195         0.946494        -1.831641
 C         1.281378         0.455402        -0.391450
 C         0.115026        -0.202516         0.177964
 H         0.562009         2.600926         1.193587
 H         1.883117         3.917386         0.551245
 H         0.356220         2.947269        -0.319713
 H         3.974851         2.074900         0.896749
 H         3.092670         1.145553         1.999128
 H         2.797169        -0.998986        -1.242432
 H         2.959648         1.909090        -2.202393
 H         0.224749        -0.623161         1.263334
 H        -0.638856         0.634513         0.217655
 H        -0.327170        -0.951421        -0.420016
