19
Iteration:  3754charge 0 multiplicity 1
 C         1.285370         3.052301         0.235425
 C         2.013197         1.719289         0.059305
 C         3.023505         1.252259         1.161119
 O         3.612103         0.139839         0.434867
 C         2.769420        -0.064589        -0.735367
 C         2.485707         1.327441        -1.400216
 O         1.160859         0.997484        -1.891629
 C         1.244586         0.432487        -0.467680
 C         0.059263        -0.230243         0.236037
 H         0.887959         3.057582         1.262959
 H         2.060278         3.888807        -0.031849
 H         0.487166         3.202378        -0.440238
 H         3.926329         1.788272         1.661831
 H         2.531088         0.616147         1.971889
 H         3.005120        -0.987971        -1.230212
 H         3.169349         1.880940        -2.119954
 H         0.298512        -0.728264         1.140948
 H        -0.816345         0.405734         0.413383
 H        -0.405646        -1.000662        -0.570801
