19
Iteration:   952
 C         1.240548         3.052578         0.400526
 C         2.081039         1.877773         0.011366
 C         3.288394         1.427713         0.890018
 O         3.340307         0.021646         0.567764
 C         2.674996        -0.071652        -0.681635
 C         2.485543         1.342899        -1.405615
 O         1.161117         0.936563        -1.864819
 C         1.265335         0.435151        -0.474173
 C         0.124180        -0.373348         0.195197
 H         0.836123         2.827832         1.355045
 H         1.799245         4.048990         0.286154
 H         0.323703         3.071176        -0.381122
 H         4.211297         1.993256         0.504530
 H         3.358700         1.530577         1.962051
 H         2.943350        -0.961611        -1.201922
 H         3.305024         1.799607        -2.124186
 H         0.318524        -0.842672         1.106786
 H        -0.754582         0.278828         0.406859
 H        -0.211768        -1.188950        -0.568870
