19
Iteration:  1296charge 0 multiplicity 1
 C         1.382961         3.187951         0.206371
 C         1.958841         1.704697         0.022589
 C         2.930570         1.220810         1.136353
 O         3.629436         0.223942         0.381039
 C         2.866801         0.002434        -0.729443
 C         2.421893         1.249490        -1.422449
 O         1.153588         0.864867        -1.787259
 C         1.256956         0.322850        -0.368670
 C         0.027354        -0.243748         0.207909
 H         1.151040         3.366774         1.264035
 H         2.053340         3.890379        -0.144105
 H         0.495900         3.401132        -0.463444
 H         3.736759         2.045786         1.351259
 H         2.596148         0.857266         2.062794
 H         3.228698        -0.864130        -1.336449
 H         2.991849         1.875829        -2.049379
 H         0.140886        -0.572174         1.205812
 H        -0.773712         0.526936         0.151654
 H        -0.211725        -1.104933        -0.357956
