19
Iteration:  1268charge 0 multiplicity 1
 C         1.355952         3.064749         0.244812
 C         2.002321         1.726419        -0.033691
 C         3.109955         1.364250         1.005576
 O         3.684336         0.160406         0.423093
 C         2.664185        -0.005800        -0.605899
 C         2.495277         1.305224        -1.313963
 O         1.109941         0.858080        -1.800552
 C         1.188227         0.440751        -0.396332
 C         0.003481        -0.318331         0.102643
 H         0.999616         3.176285         1.271154
 H         2.102887         3.940750         0.182892
 H         0.431686         3.128946        -0.415686
 H         3.865246         2.131226         0.974625
 H         2.826718         1.138617         2.103420
 H         2.780622        -0.924075        -1.125944
 H         3.268513         1.967707        -1.870837
 H         0.074432        -0.434180         1.214301
 H        -0.868878         0.242714        -0.267119
 H         0.059270        -1.411064        -0.249118
