19
Iteration:  3076
 C         1.385095         3.086380         0.214215
 C         1.932971         1.753349         0.051035
 C         3.022032         1.300201         1.012878
 O         3.663678         0.137765         0.422919
 C         2.752952         0.017742        -0.618784
 C         2.515647         1.272484        -1.383469
 O         1.118089         0.889153        -1.774016
 C         1.183974         0.510096        -0.400931
 C         0.055148        -0.323812         0.094307
 H         0.762027         3.110473         1.108884
 H         2.207414         3.873397         0.359320
 H         0.720472         3.304217        -0.585069
 H         3.807379         2.071949         1.301922
 H         2.621884         0.899043         1.935524
 H         2.882619        -1.047780        -1.120337
 H         3.252411         1.769534        -2.034095
 H         0.288223        -0.480165         1.183052
 H        -0.900578         0.227996        -0.029878
 H        -0.241859        -1.372464        -0.316211
