19
Iteration:  3357
 C         1.255460         3.071953         0.229850
 C         1.948396         1.742914         0.017693
 C         3.077261         1.277315         1.084504
 O         3.612122         0.092312         0.428950
 C         2.811002         0.010626        -0.812399
 C         2.502877         1.343345        -1.335946
 O         1.227966         0.830008        -1.811244
 C         1.313018         0.380149        -0.373010
 C        -0.033127        -0.153189         0.187558
 H         0.539571         2.976638         1.078231
 H         1.926202         3.845493         0.607958
 H         0.608299         3.460685        -0.627541
 H         3.886295         1.967010         1.332468
 H         2.584992         0.926716         2.051373
 H         2.702282        -0.969767        -1.451395
 H         3.098671         1.902884        -2.109878
 H         0.261459        -0.720002         1.161197
 H        -0.853922         0.608060         0.427822
 H        -0.602141        -0.656505        -0.517454
