19
Iteration:  3968
 C         1.322557         3.136119         0.284294
 C         2.005624         1.801145         0.035842
 C         3.172357         1.404087         0.928356
 O         3.396702        -0.028344         0.586230
 C         2.692742        -0.083430        -0.675562
 C         2.506088         1.429746        -1.334436
 O         1.163429         0.991520        -1.866797
 C         1.236341         0.427472        -0.442926
 C         0.143202        -0.443928         0.134422
 H         0.683921         2.856533         1.047063
 H         2.079014         3.833150         0.578170
 H         0.799950         3.413863        -0.664049
 H         4.132749         1.997000         0.692728
 H         2.751119         1.450547         1.942910
 H         2.743117        -1.008055        -1.271842
 H         3.123501         2.099002        -1.987475
 H         0.692394        -0.671112         1.090333
 H        -0.869834         0.050724         0.258300
 H         0.028486        -1.306293        -0.534707
