19
Iteration:  1389charge 0 multiplicity 1
 C         1.148509         3.064325         0.281411
 C         2.020843         1.775594        -0.017372
 C         3.220352         1.406035         0.985887
 O         3.454774        -0.000027         0.530220
 C         2.716581        -0.022003        -0.714665
 C         2.539012         1.345569        -1.406842
 O         1.148167         0.849434        -1.833679
 C         1.335378         0.435016        -0.374529
 C         0.074563        -0.242426         0.199672
 H         0.290211         2.873478         1.020079
 H         1.810147         3.998836         0.603666
 H         0.805955         3.485165        -0.717681
 H         4.112923         2.111467         0.797486
 H         2.982698         1.433518         2.104006
 H         3.127300        -0.935632        -1.271221
 H         3.146106         1.745320        -2.264871
 H         0.250869        -0.815772         1.185704
 H        -0.627347         0.567475         0.314959
 H        -0.131910        -1.025764        -0.538191
