19
Iteration:    53charge 0 multiplicity 1
 C         1.388334         3.157536         0.202771
 C         1.884739         1.700284         0.028891
 C         2.947503         1.308728         1.125193
 O         3.771498         0.254277         0.392616
 C         2.795375         0.016585        -0.709470
 C         2.526549         1.249779        -1.296082
 O         1.154778         0.819713        -1.891481
 C         1.154725         0.437136        -0.406297
 C        -0.029998        -0.361716         0.218813
 H         0.433132         3.279215         0.772801
 H         2.142415         3.786800         0.607285
 H         1.154890         3.622653        -0.865158
 H         3.654438         2.147180         1.515539
 H         2.486022         0.863730         2.010102
 H         3.012688        -0.925835        -1.282952
 H         3.218508         1.747206        -1.877723
 H         0.489780        -1.032517         1.046613
 H        -0.898132         0.257282         0.492713
 H        -0.435624        -0.848471        -0.588971
