19
Iteration:  4358charge 0 multiplicity 1
 C         1.224955         3.034711         0.307548
 C         2.017533         1.798619        -0.028431
 C         3.105278         1.309792         1.069564
 O         3.431181        -0.021528         0.579520
 C         2.675327        -0.042352        -0.681981
 C         2.560837         1.359691        -1.408187
 O         1.194198         1.020761        -1.914773
 C         1.295991         0.566185        -0.472937
 C         0.155835        -0.385698         0.208370
 H         0.931291         3.075433         1.328897
 H         1.926066         3.912731         0.087886
 H         0.309383         3.096000        -0.391358
 H         3.859852         2.159633         0.888460
 H         2.663879         1.176469         2.115554
 H         2.910375        -0.889859        -1.269014
 H         3.240680         1.817709        -2.153209
 H         0.560622        -0.965082         1.090059
 H        -0.815935         0.154327         0.218918
 H         0.056726        -1.033748        -0.658824
