19
Iteration:   589
 C         1.304648         3.033300         0.196723
 C         1.985633         1.702064         0.026181
 C         2.950837         1.170743         1.051605
 O         3.703115         0.196799         0.265624
 C         2.697936        -0.061794        -0.727713
 C         2.613136         1.302745        -1.285592
 O         1.160987         1.047547        -1.757132
 C         1.232685         0.456259        -0.418747
 C         0.005700        -0.262861         0.273543
 H         0.717583         3.138393         1.110535
 H         2.084329         3.818964         0.195680
 H         0.665355         3.206621        -0.596200
 H         3.762863         1.729288         1.597464
 H         2.347896         0.691472         1.732234
 H         2.762734        -1.125084        -1.317647
 H         3.140913         2.088246        -1.809776
 H         0.260058        -0.281178         1.414221
 H        -0.929522         0.161598        -0.076517
 H        -0.037014        -1.234792         0.033267
