19
Iteration:  1431
 C         1.400601         3.033950         0.210249
 C         1.974422         1.708451         0.091237
 C         2.952833         1.284130         1.124598
 O         3.696909         0.304002         0.371544
 C         2.740608        -0.032932        -0.674543
 C         2.466740         1.237941        -1.374802
 O         1.127009         0.864097        -1.866721
 C         1.250652         0.410282        -0.400855
 C        -0.037618        -0.234351         0.185589
 H         1.158575         3.317009         1.231151
 H         2.249599         3.819486         0.005366
 H         0.507729         3.270521        -0.509019
 H         3.811437         1.967654         1.621645
 H         2.494986         0.778572         1.930379
 H         3.046130        -0.898930        -1.356661
 H         3.374279         1.643593        -2.084369
 H         0.219465        -0.458192         1.249918
 H        -0.838796         0.443122        -0.069749
 H        -0.105858        -1.277549        -0.219018
