19
Iteration:  4219charge 0 multiplicity 1
 C         1.131470         3.006650         0.322333
 C         1.962861         1.675849         0.041741
 C         3.129392         1.368140         0.999098
 O         3.443562        -0.034399         0.519640
 C         2.841781        -0.024186        -0.677183
 C         2.538978         1.399565        -1.394801
 O         1.226512         0.962428        -1.877147
 C         1.261051         0.455483        -0.500269
 C         0.097732        -0.204615         0.188640
 H         0.747095         3.050289         1.376676
 H         1.825174         3.949290         0.260821
 H         0.398027         3.065048        -0.505464
 H         3.994348         1.874093         0.639159
 H         3.099378         1.299374         2.069145
 H         3.039184        -0.891997        -1.238645
 H         3.286855         2.003349        -1.953689
 H         0.467181        -0.623383         1.122716
 H        -0.676131         0.552618         0.409728
 H        -0.383814        -1.073041        -0.398403
