19
Iteration:  2576
 C         1.276398         3.104420         0.200976
 C         2.027899         1.756571         0.045036
 C         3.098794         1.349322         1.037375
 O         3.507121         0.038552         0.479906
 C         2.713228        -0.013621        -0.685332
 C         2.511504         1.345849        -1.376045
 O         1.112571         0.962378        -1.873612
 C         1.282635         0.409178        -0.431727
 C         0.139967        -0.337743         0.236014
 H         0.769706         3.213280         1.215590
 H         1.998281         3.891682         0.209059
 H         0.552658         3.245782        -0.659587
 H         3.973063         1.908930         1.198098
 H         2.554329         1.125453         1.945745
 H         2.999737        -0.950125        -1.305395
 H         3.206566         1.745070        -2.090689
 H         0.403809        -0.751677         1.213769
 H        -0.592430         0.388441         0.488691
 H        -0.307314        -1.018774        -0.415552
