19
Iteration:  3679
 C         1.213030         2.997470         0.297356
 C         1.991638         1.718665        -0.008513
 C         3.145527         1.418892         0.953283
 O         3.429121        -0.007781         0.457879
 C         2.733008        -0.079558        -0.676460
 C         2.535077         1.308665        -1.348752
 O         1.193130         1.040527        -1.838380
 C         1.276498         0.432850        -0.371039
 C         0.114362        -0.260605         0.152844
 H         0.605434         2.825009         1.147915
 H         1.894053         3.900543         0.695967
 H         0.648555         3.360553        -0.550097
 H         4.051547         1.945387         0.720933
 H         3.115388         1.382786         2.029304
 H         3.083952        -0.988483        -1.087923
 H         3.277884         2.017946        -1.759714
 H         0.300458        -0.578666         1.165487
 H        -0.730350         0.421106         0.181029
 H        -0.237168        -1.068467        -0.624160
