19
Iteration:  1720
 C         1.271335         3.090657         0.149535
 C         1.900317         1.682389         0.083837
 C         3.004524         1.226045         1.106339
 O         3.767683         0.230027         0.373535
 C         2.935915        -0.024710        -0.704760
 C         2.538079         1.222804        -1.351315
 O         1.135609         0.853921        -1.850344
 C         1.137018         0.456185        -0.362681
 C        -0.052529        -0.160651         0.243688
 H         0.323437         2.941199         0.837745
 H         2.005188         3.800063         0.511209
 H         0.969876         3.455737        -0.757551
 H         3.687395         2.104672         1.396566
 H         2.694199         0.752781         2.054473
 H         3.292369        -0.944406        -1.409674
 H         3.186095         1.742855        -2.082374
 H        -0.087098        -0.421117         1.299793
 H        -0.885373         0.593351         0.027432
 H        -0.366683        -1.099930        -0.407307
