19
Iteration:  2051
 C         1.208839         3.060075         0.298128
 C         2.006904         1.804412        -0.003151
 C         3.154342         1.454002         0.947884
 O         3.444846         0.004915         0.516280
 C         2.676845        -0.060014        -0.662570
 C         2.538671         1.338969        -1.427290
 O         1.250184         0.909886        -1.853812
 C         1.301911         0.442064        -0.431303
 C         0.097886        -0.298869         0.214306
 H         0.557893         2.744398         1.154826
 H         1.780301         3.883812         0.446610
 H         0.486546         3.351634        -0.509689
 H         4.072186         2.126386         0.878296
 H         2.776000         1.393993         1.933760
 H         2.742452        -1.021681        -1.081915
 H         3.161587         1.916598        -2.058480
 H         0.528809        -0.673068         1.141795
 H        -0.858383         0.099231         0.393233
 H        -0.109970        -1.165387        -0.314454
