19
Iteration:  3909
 C         1.172351         2.976402         0.219007
 C         2.063383         1.757382         0.052523
 C         3.037893         1.186444         1.060742
 O         3.665585         0.106667         0.416631
 C         2.769951         0.013371        -0.663562
 C         2.548560         1.300305        -1.417174
 O         1.194416         0.941231        -1.835489
 C         1.212080         0.520906        -0.386836
 C         0.021599        -0.165034         0.157049
 H         0.830202         2.948635         1.225799
 H         1.641517         4.026960         0.315655
 H         0.297122         3.108183        -0.384416
 H         3.833235         1.841659         1.514019
 H         2.505200         0.727140         1.941858
 H         2.909583        -0.974942        -1.140068
 H         3.170271         1.643520        -2.214414
 H         0.287678        -0.554353         1.143377
 H        -0.754630         0.565196         0.326237
 H        -0.299810        -0.991092        -0.474883
