19
Iteration:  3691charge 0 multiplicity 1
 C         1.149547         2.985250         0.315375
 C         1.953062         1.726420         0.105962
 C         3.261637         1.337853         0.920997
 O         3.478116        -0.009864         0.550762
 C         2.694814        -0.057987        -0.709922
 C         2.593518         1.383480        -1.318740
 O         1.205823         0.964263        -1.853511
 C         1.244694         0.442389        -0.529945
 C         0.079319        -0.177561         0.164933
 H         0.526507         2.932452         1.186396
 H         1.936063         3.857303         0.414543
 H         0.446254         3.238792        -0.523276
 H         4.023076         2.053352         0.702980
 H         2.959009         1.371645         1.946004
 H         2.810880        -0.854655        -1.370751
 H         3.160018         1.886835        -2.101328
 H         0.502064        -0.602328         1.090051
 H        -0.753236         0.476806         0.343774
 H        -0.192206        -1.131740        -0.407315
