19
Iteration:  1336
 C         1.193442         3.037448         0.135747
 C         2.019726         1.790779         0.012506
 C         3.061462         1.318774         1.046830
 O         3.467645         0.057855         0.458563
 C         2.698856        -0.057420        -0.711135
 C         2.554173         1.291858        -1.406032
 O         1.202739         0.978359        -1.884537
 C         1.306922         0.510838        -0.391329
 C         0.167998        -0.284711         0.318158
 H         0.651470         2.929792         1.146838
 H         1.730718         4.006323         0.337723
 H         0.391068         2.990997        -0.520465
 H         3.833820         2.000441         1.126996
 H         2.607297         1.042569         2.094635
 H         3.008883        -1.073929        -1.181776
 H         3.240926         1.729511        -2.099808
 H         0.754429        -0.796488         1.193832
 H        -0.480420         0.520940         0.708731
 H        -0.414279        -1.035759        -0.237979
