19
Iteration:   559
 C         1.257023         3.073207         0.286576
 C         1.980476         1.753927         0.066252
 C         3.014366         1.246581         1.127651
 O         3.477321        -0.040608         0.429890
 C         2.787682         0.030804        -0.839740
 C         2.541952         1.363615        -1.427456
 O         1.088269         0.975891        -1.841140
 C         1.320067         0.433377        -0.484225
 C         0.220053        -0.223212         0.295770
 H         0.682094         3.159921         1.204327
 H         2.111798         3.855200         0.241608
 H         0.602925         3.328722        -0.636113
 H         3.934278         1.748679         1.423044
 H         2.426225         1.014425         2.155747
 H         2.989394        -0.830610        -1.506217
 H         3.046984         2.039931        -2.168831
 H         0.430594        -0.146594         1.380410
 H        -0.748223         0.222135        -0.013988
 H         0.092782        -1.318147         0.015726
