19
Iteration:  2615charge 0 multiplicity 1
 C         1.201443         2.955208         0.300558
 C         2.044420         1.842374        -0.004481
 C         3.271286         1.387714         0.973505
 O         3.466055         0.038958         0.501105
 C         2.645359        -0.031338        -0.682882
 C         2.508082         1.326271        -1.359784
 O         1.200362         0.907785        -1.881083
 C         1.247755         0.458098        -0.428306
 C         0.089879        -0.269666         0.205973
 H         0.500694         2.914962         1.140807
 H         1.818946         3.916891         0.512844
 H         0.466650         2.952682        -0.517801
 H         4.188797         2.106991         0.933350
 H         2.998240         1.570799         2.054772
 H         2.727796        -0.978048        -1.110476
 H         3.239409         1.777730        -2.070213
 H         0.435717        -0.875019         1.146106
 H        -0.723698         0.527917         0.388900
 H        -0.332951        -0.908308        -0.637736
