19
Iteration:  1367charge 0 multiplicity 1
 C         1.156902         2.926764         0.209939
 C         2.041972         1.783847         0.018149
 C         3.209283         1.424536         0.857328
 O         3.363719        -0.014353         0.589368
 C         2.695195        -0.106405        -0.635887
 C         2.501197         1.378092        -1.361198
 O         1.210441         0.984969        -1.825257
 C         1.275865         0.496602        -0.464658
 C         0.169382        -0.238295         0.218722
 H         0.380003         2.488102         0.917461
 H         1.610677         3.947263         0.575565
 H         0.768451         3.244882        -0.829456
 H         4.146130         1.971273         0.573552
 H         3.091370         1.569113         1.969348
 H         3.072962        -1.047658        -1.181861
 H         3.183101         1.909412        -2.103880
 H         0.797582        -0.711334         1.082768
 H        -0.492975         0.425299         0.763523
 H        -0.268633        -1.126767        -0.280995
