19
Iteration:  3337
 C         1.247487         3.044347         0.271859
 C         2.019245         1.762116         0.056296
 C         3.012385         1.224883         1.086211
 O         3.629773         0.073562         0.413358
 C         2.782741        -0.052652        -0.628578
 C         2.481413         1.352200        -1.409796
 O         1.161854         0.872536        -1.867625
 C         1.276756         0.493928        -0.485460
 C         0.043502        -0.174615         0.219697
 H         0.480306         3.013807         0.987948
 H         1.935278         3.960510         0.438760
 H         0.693104         3.172100        -0.612168
 H         3.832024         1.967045         1.116073
 H         2.484750         1.086777         2.135202
 H         3.120026        -0.907374        -1.334772
 H         3.184678         1.855460        -2.059493
 H         0.478446        -0.676763         1.185707
 H        -0.769345         0.614300         0.404111
 H        -0.382947        -0.849132        -0.500492
