19
Iteration:  3782
 C         1.375525         3.160841         0.230908
 C         1.913417         1.773277         0.102176
 C         3.013825         1.345228         1.037520
 O         3.519180         0.004281         0.387568
 C         2.773958        -0.033995        -0.708334
 C         2.505487         1.397628        -1.288175
 O         1.183738         0.908196        -1.774358
 C         1.240258         0.413730        -0.461501
 C         0.123054        -0.322268         0.160658
 H         0.531544         3.110674         0.993226
 H         2.074952         3.910090         0.271775
 H         0.701443         3.455607        -0.681605
 H         3.882771         1.902357         1.099415
 H         2.810542         0.861550         1.932218
 H         2.868474        -0.952647        -1.406937
 H         3.164382         2.006303        -1.917247
 H         0.352332        -0.807931         1.151285
 H        -0.795402         0.311963         0.224688
 H        -0.103688        -1.031312        -0.536399
