19
Iteration:  1244charge 0 multiplicity 1
 C         1.148964         3.129320         0.333714
 C         2.065609         1.792025         0.040582
 C         3.223677         1.451637         0.930949
 O         3.440169         0.012383         0.524901
 C         2.718201        -0.073664        -0.718315
 C         2.547878         1.256754        -1.481561
 O         1.146077         0.932445        -1.758165
 C         1.309946         0.458030        -0.355692
 C         0.090523        -0.341401         0.136993
 H         0.495410         3.265145         1.192794
 H         1.840163         3.969032         0.410612
 H         0.462283         3.122688        -0.644949
 H         4.115378         2.109536         0.721800
 H         3.076807         1.316282         1.978043
 H         2.811346        -0.989077        -1.097066
 H         3.187766         1.715994        -2.340315
 H         0.055255        -0.383349         1.164820
 H        -0.711283         0.270987        -0.296690
 H         0.108269        -1.408381        -0.172270
