19
Iteration:  4531
 C         1.290955         3.099859         0.296995
 C         2.075827         1.820191         0.081481
 C         3.008734         1.308426         1.067656
 O         3.479377         0.097765         0.474059
 C         2.682825        -0.063168        -0.711559
 C         2.522486         1.324806        -1.381270
 O         1.197321         0.991211        -1.793101
 C         1.257211         0.407842        -0.458317
 C         0.112817        -0.369562         0.069137
 H         0.733290         3.117671         1.263297
 H         2.000415         3.924090         0.237168
 H         0.608137         3.195275        -0.642544
 H         3.821696         2.028565         1.205594
 H         2.753804         1.050176         2.124412
 H         2.934574        -0.903700        -1.316306
 H         3.270581         1.665467        -2.140870
 H         0.598433        -0.742079         1.057226
 H        -0.842315         0.194235         0.237170
 H        -0.038583        -1.109381        -0.669715
