19
Iteration:  1228charge 0 multiplicity 1
 C         1.174997         3.012726         0.221053
 C         2.047349         1.828754        -0.008700
 C         3.226849         1.374145         0.893487
 O         3.388285        -0.007905         0.588548
 C         2.716336        -0.064838        -0.663723
 C         2.542462         1.362138        -1.394628
 O         1.110578         0.965348        -1.799216
 C         1.286181         0.434029        -0.443677
 C         0.190129        -0.262620         0.199664
 H         0.601423         2.616413         1.105662
 H         1.661363         3.935491         0.629666
 H         0.521534         3.230406        -0.546239
 H         4.212558         1.842408         0.611504
 H         3.082745         1.635512         1.989877
 H         3.007414        -1.003533        -1.376162
 H         3.135396         1.832227        -2.138257
 H         0.275217        -0.361822         1.361033
 H        -0.744435         0.249220        -0.022749
 H         0.127855        -1.326331        -0.064895
