19
Iteration:  2843charge 0 multiplicity 1
 C         1.176653         3.091324         0.215787
 C         1.991539         1.770227         0.004975
 C         3.004167         1.375949         1.011084
 O         3.551313        -0.025493         0.396724
 C         2.796409        -0.099210        -0.705271
 C         2.553728         1.335352        -1.321021
 O         1.227783         0.932365        -1.810384
 C         1.210400         0.473694        -0.446685
 C         0.120698        -0.242561         0.293071
 H         0.706519         3.052723         1.122255
 H         1.810431         4.034201         0.071163
 H         0.321017         3.022917        -0.602016
 H         3.922267         2.057257         1.208031
 H         2.661783         1.117059         2.003250
 H         3.119890        -0.881502        -1.420138
 H         3.233111         1.871824        -2.054980
 H         0.586909        -0.602367         1.261527
 H        -0.624233         0.617224         0.371479
 H        -0.364086        -1.080174        -0.149639
