19
Iteration:   851
 C         1.239726         3.022238         0.222129
 C         2.091853         1.749686         0.024439
 C         3.055936         1.269857         1.114617
 O         3.583485         0.089843         0.373643
 C         2.751269        -0.043825        -0.753710
 C         2.527183         1.343642        -1.425844
 O         1.088645         0.969598        -1.724664
 C         1.327462         0.344733        -0.424759
 C         0.064940        -0.166599         0.200893
 H         0.696318         2.851374         1.210278
 H         1.794752         3.973617         0.386173
 H         0.498540         3.061780        -0.626875
 H         3.884360         1.912384         1.335236
 H         2.439373         1.075114         2.010664
 H         3.062198        -0.895998        -1.274305
 H         2.907357         1.965296        -2.264544
 H         0.259154        -0.646759         1.164301
 H        -0.598536         0.713372         0.307265
 H        -0.312133        -1.017843        -0.309396
