19
Iteration:  4731
 C         1.270416         3.078829         0.254241
 C         1.973582         1.643860         0.110164
 C         3.056961         1.351756         1.058905
 O         3.533785         0.106169         0.456016
 C         2.706650        -0.081982        -0.721567
 C         2.552271         1.378928        -1.329660
 O         1.266440         0.966167        -1.875346
 C         1.228756         0.418837        -0.463888
 C         0.037958        -0.304886         0.184132
 H         0.756446         3.232108         1.165288
 H         2.023965         3.902163         0.395324
 H         0.607348         3.368382        -0.516092
 H         3.769752         2.139392         0.899977
 H         2.762799         1.043932         2.120834
 H         2.880128        -0.982529        -1.391183
 H         3.163329         1.932953        -1.949725
 H         0.278274        -0.772863         1.053290
 H        -0.756937         0.408420         0.316508
 H        -0.125159        -1.074505        -0.674579
