19
Iteration:  3807
 C         1.360310         3.087811         0.279189
 C         2.049380         1.755840         0.036498
 C         3.119416         1.346164         0.984255
 O         3.461863         0.017319         0.588959
 C         2.682754         0.023923        -0.650824
 C         2.515338         1.358146        -1.465157
 O         1.109993         1.056087        -1.812768
 C         1.247994         0.426711        -0.416188
 C         0.125595        -0.439831         0.112022
 H         0.405757         2.856223         0.878326
 H         1.958089         3.998058         0.535488
 H         0.829563         3.382555        -0.620242
 H         4.061397         1.922068         0.814242
 H         2.920762         1.180487         2.071962
 H         2.797662        -0.864677        -1.266249
 H         3.205900         1.839621        -2.245860
 H         0.356915        -0.758805         1.064369
 H        -0.792122         0.132804         0.166353
 H        -0.026308        -1.382765        -0.549753
