19
Iteration:   460charge 0 multiplicity 1
 C         1.240666         3.043746         0.239787
 C         2.011845         1.734792         0.135254
 C         3.053100         1.224736         1.142360
 O         3.677748         0.136421         0.320172
 C         2.840555        -0.021775        -0.745482
 C         2.468510         1.344550        -1.367744
 O         1.146865         0.883643        -1.772001
 C         1.247391         0.380058        -0.426096
 C        -0.032720        -0.130858         0.136713
 H         0.677168         3.315789         1.157701
 H         2.061330         3.891734         0.075044
 H         0.624164         2.989043        -0.659631
 H         3.646607         1.967763         1.560411
 H         2.546524         0.688935         2.075012
 H         3.177517        -0.899108        -1.463739
 H         2.990961         1.921689        -2.150007
 H         0.228114        -0.930439         0.943987
 H        -0.407175         0.600122         0.859233
 H        -0.605187        -0.589693        -0.730202
