19
Iteration:   533charge 0 multiplicity 1
 C         1.246028         3.021305         0.381113
 C         2.023311         1.820759        -0.007081
 C         3.157213         1.352813         0.928946
 O         3.377528        -0.056921         0.522885
 C         2.653607        -0.059594        -0.685790
 C         2.490044         1.423498        -1.430681
 O         1.221159         0.998953        -1.879967
 C         1.275573         0.481399        -0.439948
 C         0.206166        -0.317067         0.213742
 H         0.703089         2.770817         1.337455
 H         1.825803         3.923939         0.516066
 H         0.544680         3.177310        -0.358845
 H         4.231754         1.746283         0.879853
 H         2.777068         1.523109         1.922621
 H         2.788718        -1.043036        -1.329056
 H         3.103532         1.916764        -2.162016
 H         0.513132        -0.570935         1.304547
 H        -0.777262         0.175182         0.225672
 H         0.163254        -1.186918        -0.331521
