19
Iteration:  4546
 C         1.300492         3.101120         0.218085
 C         1.938972         1.724728         0.044118
 C         3.035158         1.315160         1.063480
 O         3.561569         0.032442         0.454030
 C         2.804865        -0.017501        -0.725419
 C         2.560809         1.387581        -1.346411
 O         1.177773         0.963806        -1.784017
 C         1.286247         0.435479        -0.374773
 C         0.037407        -0.350744         0.103674
 H         0.689138         3.175705         1.116133
 H         2.053703         4.047125         0.382297
 H         0.639838         3.437719        -0.611355
 H         3.949010         1.928724         1.194132
 H         2.439707         1.045155         1.905790
 H         2.981053        -0.973866        -1.243189
 H         2.962525         2.169116        -1.956418
 H         0.083005        -1.008847         0.951579
 H        -0.723021         0.418680         0.219209
 H        -0.385325        -1.150798        -0.651019
