19
Iteration:  2338
 C         1.227508         3.084985         0.288646
 C         1.998707         1.825553         0.019488
 C         3.177255         1.430875         0.994392
 O         3.411089         0.002717         0.488675
 C         2.700329        -0.062561        -0.669027
 C         2.589682         1.292462        -1.328340
 O         1.138477         0.904260        -1.888505
 C         1.248222         0.473332        -0.417349
 C         0.149927        -0.304850         0.193557
 H         0.707013         3.125837         1.196181
 H         1.992279         3.839432         0.333470
 H         0.380417         3.328237        -0.467476
 H         4.007822         2.077660         0.609897
 H         3.224429         1.500707         2.037847
 H         2.874625        -1.039831        -1.281919
 H         3.171899         1.743413        -2.149645
 H         0.480052        -0.585111         1.211793
 H        -0.860393         0.012456         0.231437
 H         0.202417        -1.212640        -0.480861
