19
Iteration:  1616charge 0 multiplicity 1
 C         1.218384         3.079222         0.128119
 C         2.017649         1.813267         0.010688
 C         3.118805         1.317433         1.039634
 O         3.445275         0.008947         0.552787
 C         2.765499        -0.025537        -0.661573
 C         2.526607         1.391369        -1.404277
 O         1.138790         0.920108        -1.778836
 C         1.281800         0.377645        -0.450832
 C         0.160805        -0.272739         0.178422
 H         1.024309         3.234888         1.144592
 H         1.887023         3.931236        -0.006539
 H         0.162597         3.053011        -0.440202
 H         3.964046         2.031690         0.905174
 H         2.808343         1.375608         2.099167
 H         2.971184        -0.980766        -1.264413
 H         3.190665         2.004142        -2.196488
 H         0.641561        -0.871024         1.043761
 H        -0.634405         0.357262         0.578811
 H        -0.357590        -0.991679        -0.507661
