19
Iteration:  4071
 C         1.089860         2.940751         0.309265
 C         2.094351         1.770924         0.017497
 C         3.146209         1.325663         0.993694
 O         3.541977         0.024137         0.479883
 C         2.715161        -0.051457        -0.702599
 C         2.578231         1.332885        -1.417899
 O         1.181880         0.975898        -1.815723
 C         1.288958         0.451200        -0.412849
 C         0.086472        -0.159661         0.170605
 H         0.539153         2.809622         1.277500
 H         1.594634         3.880126         0.318802
 H         0.409546         2.854993        -0.505547
 H         3.913933         2.061113         1.122398
 H         2.716554         1.252631         2.001743
 H         2.781690        -1.056918        -1.222401
 H         3.266153         1.879238        -2.096385
 H         0.180455        -0.581528         1.190059
 H        -0.569130         0.705358         0.171758
 H        -0.318100        -0.948581        -0.559480
