19
Iteration:  2398charge 0 multiplicity 1
 C         1.266845         3.048540         0.134338
 C         1.985180         1.748512         0.038497
 C         2.978631         1.254048         1.055316
 O         3.638205         0.135420         0.438284
 C         2.690894        -0.099502        -0.738465
 C         2.504162         1.402579        -1.361035
 O         1.182646         0.928393        -1.795931
 C         1.265982         0.430586        -0.394588
 C         0.104210        -0.240754         0.288806
 H         0.828927         3.292077         1.177085
 H         2.157390         3.826314        -0.102252
 H         0.777248         3.261198        -0.760913
 H         3.752205         1.968797         1.363493
 H         2.464073         0.773595         1.962369
 H         2.831972        -1.008514        -1.321306
 H         2.990133         1.928177        -2.205955
 H         0.499837        -0.927384         1.086679
 H        -0.722427         0.477787         0.522999
 H        -0.181084        -0.958391        -0.454008
