19
Iteration:  1873charge 0 multiplicity 1
 C         1.273772         3.085236         0.114093
 C         1.934470         1.695041         0.031120
 C         3.050119         1.314895         1.078964
 O         3.756913         0.159726         0.403982
 C         2.759791        -0.069983        -0.651348
 C         2.478507         1.279691        -1.319506
 O         1.140283         0.931698        -1.840607
 C         1.252939         0.420351        -0.365596
 C        -0.012485        -0.228257         0.179920
 H         0.510158         2.981456         1.016583
 H         2.006443         3.788780         0.554100
 H         0.775008         3.395677        -0.724470
 H         3.728547         2.211830         1.413615
 H         2.668312         0.892563         1.992156
 H         3.023257        -1.081550        -1.253066
 H         3.186682         1.875263        -1.957026
 H         0.087655        -0.517076         1.177229
 H        -0.903043         0.419863         0.135386
 H        -0.196062        -1.210961        -0.366237
