19
Iteration:  2930charge 0 multiplicity 1
 C         1.351909         3.050270         0.225943
 C         1.947654         1.708514         0.016867
 C         3.070406         1.305963         1.016971
 O         3.697954         0.135068         0.456233
 C         2.749371        -0.066205        -0.636767
 C         2.461379         1.411364        -1.315471
 O         1.155776         0.875190        -1.856791
 C         1.162358         0.485716        -0.421339
 C         0.006525        -0.308614         0.162846
 H         0.770751         3.127106         1.038821
 H         2.138502         3.787179         0.281286
 H         0.776136         3.403840        -0.678546
 H         3.812858         2.087139         1.100568
 H         2.670895         1.153298         1.990252
 H         2.923985        -0.952705        -1.215038
 H         3.214083         1.749652        -2.031543
 H         0.194467        -0.421600         1.245866
 H        -0.964968         0.235963         0.244061
 H        -0.108637        -1.198478        -0.338345
