19
Iteration:   888
 C         1.348304         3.098064         0.123557
 C         1.953214         1.700084         0.076064
 C         2.952760         1.164124         1.144093
 O         3.670962         0.164568         0.265265
 C         2.714701        -0.000885        -0.735361
 C         2.517546         1.370696        -1.313698
 O         1.188441         0.917043        -1.783529
 C         1.185707         0.428632        -0.412009
 C         0.080505        -0.268050         0.321395
 H         0.634713         3.280238         0.895498
 H         2.117453         3.907330         0.085870
 H         0.730793         3.253628        -0.840918
 H         3.808237         1.911623         1.381989
 H         2.608319         0.745412         2.047613
 H         2.848177        -0.894295        -1.424853
 H         3.241107         2.087357        -1.817655
 H         0.552777        -0.947735         0.974909
 H        -0.654549         0.341442         0.832344
 H        -0.586377        -0.722030        -0.475913
