19
Iteration:  3368charge 0 multiplicity 1
 C         1.260424         3.044706         0.259557
 C         2.020303         1.751367         0.050341
 C         2.996461         1.311292         1.035615
 O         3.609755         0.097635         0.365066
 C         2.762997        -0.070824        -0.674846
 C         2.489972         1.340315        -1.346846
 O         1.204063         0.888028        -1.772188
 C         1.289319         0.361276        -0.413073
 C        -0.002205        -0.157628         0.148546
 H         0.559591         2.865760         1.096488
 H         1.984521         3.842266         0.482707
 H         0.687596         3.383258        -0.653571
 H         3.800292         2.028646         1.050804
 H         2.587288         1.196910         2.066603
 H         3.163443        -0.875653        -1.420012
 H         3.233617         1.853837        -1.994043
 H         0.121032        -0.834312         1.079589
 H        -0.487323         0.802020         0.442501
 H        -0.394797        -0.823424        -0.531575
