19
Iteration:  1684
 C         1.270366         3.065627         0.243018
 C         1.986750         1.762907        -0.011393
 C         3.041716         1.331059         1.066938
 O         3.535657         0.124219         0.461871
 C         2.740010        -0.040063        -0.705795
 C         2.500671         1.333097        -1.407530
 O         1.156314         0.841723        -1.843842
 C         1.337979         0.392187        -0.357185
 C         0.101097        -0.224912         0.188490
 H         0.738480         3.021080         1.154426
 H         1.966632         3.935329         0.411767
 H         0.503846         3.230665        -0.489751
 H         3.913073         2.028911         1.213576
 H         2.634877         1.124142         1.998623
 H         2.926311        -0.901698        -1.229726
 H         3.305226         1.789985        -2.148994
 H         0.009040        -0.115684         1.317367
 H        -0.721301         0.363288        -0.260427
 H        -0.009064        -1.193151        -0.237207
