19
Iteration:  2709
 C         1.282002         3.056743         0.205809
 C         2.009389         1.785668         0.019969
 C         3.065048         1.256805         1.053952
 O         3.502747         0.108691         0.401970
 C         2.684461        -0.000860        -0.638386
 C         2.510859         1.335186        -1.390018
 O         1.190775         0.936273        -1.793430
 C         1.247086         0.432972        -0.441672
 C         0.159784        -0.288581         0.225392
 H         0.824462         3.238717         1.156170
 H         1.986031         3.816064         0.181498
 H         0.404969         3.200672        -0.542571
 H         3.938057         1.921679         1.187749
 H         2.640628         0.992088         2.061520
 H         2.736250        -0.969178        -1.297442
 H         3.226340         1.770457        -2.182424
 H         0.427219        -0.313717         1.240265
 H        -0.774606         0.200757         0.107247
 H         0.070980        -1.328924        -0.252194
