19
Iteration:  4017charge 0 multiplicity 1
 C         1.308751         3.093502         0.211401
 C         2.026510         1.721685         0.006236
 C         2.969210         1.208381         1.097255
 O         3.605310         0.120673         0.421346
 C         2.768940        -0.051618        -0.657726
 C         2.436476         1.379752        -1.386816
 O         1.175238         0.958913        -1.801148
 C         1.207962         0.422272        -0.441726
 C         0.107555        -0.268841         0.183359
 H         0.967731         3.034161         1.317344
 H         2.187489         3.757810         0.019333
 H         0.535906         3.308609        -0.526384
 H         3.689691         1.944997         1.350844
 H         2.397379         0.929319         2.004449
 H         3.197019        -0.929473        -1.248667
 H         3.109501         1.965161        -2.026163
 H         0.485665        -0.600821         1.159170
 H        -0.652235         0.495005         0.260779
 H        -0.231695        -1.058229        -0.561101
