19
Iteration:  4284
 C         1.291410         3.090064         0.271368
 C         1.940019         1.773786         0.052178
 C         3.031845         1.278017         1.082586
 O         3.585464         0.106613         0.361251
 C         2.760855         0.003490        -0.702759
 C         2.558710         1.345050        -1.293279
 O         1.163172         0.906358        -1.800319
 C         1.326204         0.379679        -0.467833
 C         0.001396        -0.269574         0.142244
 H         0.459953         2.955011         0.937989
 H         2.060783         3.889740         0.581411
 H         0.732172         3.178876        -0.662523
 H         3.917264         1.890617         1.306815
 H         2.552872         1.037897         2.059111
 H         3.110033        -0.845193        -1.180225
 H         3.252955         1.836209        -1.969195
 H         0.157356        -0.515312         1.187784
 H        -0.711177         0.566451        -0.000023
 H        -0.352509        -1.226887        -0.434983
