19
Iteration:  1600charge 0 multiplicity 1
 C         1.274118         3.098163         0.147326
 C         2.012512         1.768173         0.015087
 C         3.026953         1.337220         1.065115
 O         3.629786         0.101854         0.458324
 C         2.730978        -0.074133        -0.671660
 C         2.515645         1.323142        -1.342948
 O         1.125516         0.896748        -1.814893
 C         1.277714         0.445139        -0.408182
 C         0.102998        -0.274803         0.205720
 H         0.659733         3.145405         1.147052
 H         1.882012         3.990915        -0.106471
 H         0.617038         3.127142        -0.670502
 H         3.836994         1.991265         1.401367
 H         2.390362         0.972952         1.942243
 H         2.953615        -0.951807        -1.238175
 H         3.101560         1.829930        -2.006686
 H         0.257993        -1.076751         0.887464
 H        -0.544831         0.536432         0.600085
 H        -0.443739        -0.836781        -0.557391
