19
Iteration:  1480charge 0 multiplicity 1
 C         1.240231         3.049719         0.189709
 C         2.045078         1.782320         0.063490
 C         3.106764         1.352344         1.059626
 O         3.413124         0.041513         0.496086
 C         2.693100        -0.056069        -0.720711
 C         2.513028         1.347202        -1.443391
 O         1.201323         0.941714        -1.836471
 C         1.274100         0.477423        -0.435154
 C         0.179914        -0.311577         0.239682
 H         0.993099         3.344671         1.296169
 H         1.652040         3.992143        -0.241370
 H         0.318969         2.837669        -0.346150
 H         3.964693         1.928336         1.047205
 H         2.829473         1.188444         2.180975
 H         2.942542        -0.957549        -1.202928
 H         3.123174         1.796328        -2.115415
 H         0.369501        -0.305603         1.303999
 H        -0.709681         0.289531        -0.053074
 H         0.136542        -1.361205        -0.045641
