19
Iteration:  4349
 C         1.270977         3.053532         0.253777
 C         2.049767         1.826331         0.031410
 C         3.015966         1.314111         0.979624
 O         3.407092        -0.030081         0.525893
 C         2.737955         0.010155        -0.643483
 C         2.547154         1.319961        -1.433578
 O         1.220057         1.060970        -1.897401
 C         1.259862         0.491167        -0.348066
 C         0.194125        -0.385667         0.162697
 H         0.910312         3.068908         1.256268
 H         1.750252         4.099198         0.124227
 H         0.299221         2.970994        -0.262530
 H         3.941960         1.909296         1.264710
 H         2.524929         1.173989         2.015078
 H         2.791144        -0.844693        -1.220921
 H         3.132231         1.727053        -2.237132
 H         0.462638        -0.854104         1.135871
 H        -0.789102         0.136098         0.305602
 H         0.114031        -1.250265        -0.648841
