19
Iteration:  1530
 C         1.146072         3.031354         0.270205
 C         2.017377         1.732204         0.000809
 C         3.175298         1.389961         0.990771
 O         3.434340         0.059570         0.515351
 C         2.735360        -0.017264        -0.689163
 C         2.547417         1.361554        -1.436063
 O         1.203820         0.839352        -1.824862
 C         1.287640         0.437202        -0.435657
 C         0.089476        -0.217773         0.234282
 H         0.308707         2.873283         0.879286
 H         1.814090         3.862443         0.628532
 H         0.872193         3.562910        -0.647558
 H         4.197452         1.985080         0.894549
 H         2.955717         1.238435         2.002480
 H         2.898288        -1.093450        -0.992366
 H         3.146664         1.974605        -2.301256
 H         0.505036        -0.874904         1.106507
 H        -0.572700         0.594006         0.506629
 H        -0.243115        -0.935588        -0.527827
