19
Iteration:  4362charge 0 multiplicity 1
 C         1.201254         3.037201         0.318345
 C         2.006715         1.781193        -0.028339
 C         3.124688         1.323885         1.091961
 O         3.444351        -0.003092         0.591621
 C         2.651762        -0.066111        -0.718297
 C         2.580464         1.383988        -1.405993
 O         1.187833         0.993409        -1.902132
 C         1.275610         0.548055        -0.510675
 C         0.162778        -0.351564         0.193443
 H         0.962696         3.040088         1.397298
 H         1.919844         3.875827         0.071086
 H         0.440820         3.203234        -0.408045
 H         3.915229         2.049237         0.870399
 H         2.769019         1.266710         2.147394
 H         2.949543        -0.981508        -1.251704
 H         3.300513         1.906196        -2.014504
 H         0.520035        -0.894637         1.041183
 H        -0.819113         0.135517         0.356875
 H        -0.036561        -1.142591        -0.707821
