19
Iteration:  1470
 C         1.252533         3.106709         0.166455
 C         2.022790         1.812181         0.013774
 C         3.078512         1.302833         1.060318
 O         3.520541        -0.007915         0.489786
 C         2.757762         0.026567        -0.722294
 C         2.497848         1.343752        -1.340296
 O         1.130391         0.889883        -1.829873
 C         1.292705         0.393342        -0.407834
 C         0.168836        -0.241292         0.206776
 H         1.089875         3.401154         1.235344
 H         1.817514         3.864626        -0.338014
 H         0.252421         2.992538        -0.289456
 H         3.845758         1.963612         1.229029
 H         2.458982         1.166716         2.025889
 H         2.906808        -0.784461        -1.371310
 H         3.016269         1.892577        -2.036303
 H         0.204848        -0.224398         1.259422
 H        -0.844810         0.151066        -0.039201
 H         0.069858        -1.287458        -0.138172
