19
Iteration:   441charge 0 multiplicity 1
 C         1.239168         2.992072         0.194407
 C         1.977368         1.674158        -0.007064
 C         2.926255         1.153753         1.038249
 O         3.691003         0.169693         0.363112
 C         2.728467        -0.021931        -0.723150
 C         2.563493         1.312545        -1.316575
 O         1.198385         1.057832        -1.824596
 C         1.259937         0.406218        -0.449031
 C         0.073790        -0.205223         0.337567
 H         0.884362         3.030443         1.191925
 H         1.966532         3.818545         0.150561
 H         0.424509         3.251879        -0.548940
 H         3.672195         1.973999         1.393278
 H         2.476497         0.815224         1.946110
 H         2.823900        -0.938872        -1.260645
 H         3.281884         1.979572        -1.866214
 H         0.220998        -0.972962         1.080033
 H        -0.557569         0.603555         0.799987
 H        -0.556172        -0.756866        -0.583739
