19
Iteration:   531charge 0 multiplicity 1
 C         1.239444         3.009510         0.392369
 C         2.027220         1.824033         0.000138
 C         3.178268         1.373422         0.939790
 O         3.380888        -0.055372         0.530752
 C         2.651720        -0.063043        -0.687300
 C         2.496169         1.397245        -1.444763
 O         1.219593         1.008465        -1.896942
 C         1.259601         0.483797        -0.439384
 C         0.197224        -0.318737         0.216696
 H         0.718673         2.809701         1.348837
 H         1.846628         3.846902         0.526899
 H         0.514168         3.181192        -0.394879
 H         4.216488         1.793084         0.855701
 H         2.842366         1.500794         1.902257
 H         2.742254        -0.956165        -1.274416
 H         3.131516         1.937918        -2.150786
 H         0.450804        -0.580127         1.235013
 H        -0.784231         0.176181         0.311498
 H         0.193977        -1.251318        -0.416252
