19
Iteration:  2034
 C         1.266397         3.090574         0.249930
 C         2.019933         1.779561         0.069327
 C         3.112962         1.359846         1.025469
 O         3.526934         0.155954         0.471090
 C         2.679563        -0.066335        -0.642385
 C         2.535980         1.258986        -1.345165
 O         1.163855         0.924871        -1.884065
 C         1.180388         0.459388        -0.434425
 C         0.146275        -0.381451         0.159378
 H         0.537983         3.186375         1.036450
 H         1.990223         4.048673         0.443634
 H         0.689987         3.303040        -0.705613
 H         3.914988         2.053223         0.835433
 H         2.966105         1.242413         2.168813
 H         3.021433        -0.959518        -1.303229
 H         3.296060         1.643493        -2.151534
 H         0.387015        -0.757185         1.239183
 H        -0.750388         0.328836         0.391937
 H        -0.325542        -1.208101        -0.514786
