19
Iteration:  2637charge 0 multiplicity 1
 C         1.138764         3.063903         0.293585
 C         1.991202         1.783126         0.049837
 C         3.141008         1.333953         0.918218
 O         3.585640         0.024136         0.441363
 C         2.767191        -0.093271        -0.642244
 C         2.570495         1.280817        -1.450136
 O         1.187886         0.934920        -1.786011
 C         1.261349         0.471285        -0.378428
 C         0.027344        -0.197537         0.163557
 H         0.515026         2.952175         1.189721
 H         1.740835         4.027227         0.524422
 H         0.338800         3.142481        -0.434370
 H         3.966594         2.108993         0.983402
 H         2.825241         1.328508         1.987399
 H         3.076084        -0.941335        -1.175920
 H         3.228128         1.631612        -2.260853
 H         0.429245        -0.663356         1.158016
 H        -0.801847         0.569928         0.363643
 H        -0.377521        -1.030687        -0.457590
