19
Iteration:  4394charge 0 multiplicity 1
 C         1.224790         3.016634         0.323430
 C         1.977547         1.750147         0.024941
 C         3.046058         1.329773         1.016260
 O         3.516551         0.043137         0.513046
 C         2.773488        -0.050991        -0.767006
 C         2.538414         1.416100        -1.364940
 O         1.247172         0.949835        -1.855643
 C         1.260467         0.351038        -0.429547
 C         0.057446        -0.244645         0.182600
 H         0.551103         3.015080         1.182132
 H         2.027208         3.846116         0.448989
 H         0.678511         3.330816        -0.553338
 H         3.950901         2.035931         0.951542
 H         2.906358         1.323583         2.137830
 H         3.187191        -0.818455        -1.417865
 H         3.243344         1.948582        -1.969322
 H        -0.086125        -0.776744         1.073845
 H        -0.738331         0.490404         0.306641
 H        -0.395880        -0.923704        -0.688675
