19
Iteration:  2210charge 0 multiplicity 1
 C         1.237568         3.044126         0.248596
 C         2.004391         1.810705        -0.017602
 C         3.112233         1.355965         0.930591
 O         3.386682         0.023762         0.565860
 C         2.728370        -0.009708        -0.682469
 C         2.581201         1.349933        -1.456825
 O         1.173108         0.943611        -1.789158
 C         1.279664         0.494512        -0.425304
 C         0.165366        -0.351567         0.239949
 H         0.772146         2.848021         1.182437
 H         1.827611         4.046485         0.229353
 H         0.555722         3.248961        -0.530607
 H         3.998571         1.946050         0.669108
 H         2.867256         1.362505         2.075584
 H         2.949433        -0.886348        -1.126393
 H         3.223935         1.732574        -2.231588
 H         0.579526        -0.922377         1.053627
 H        -0.773981         0.255304         0.467961
 H        -0.186486        -1.253579        -0.438277
