19
Iteration:   594
 C         1.296669         3.053123         0.201206
 C         1.981321         1.700501         0.051112
 C         2.994493         1.209177         1.068277
 O         3.706905         0.182275         0.241371
 C         2.722399        -0.098567        -0.751870
 C         2.608907         1.317202        -1.285473
 O         1.151576         1.016423        -1.730831
 C         1.211115         0.461363        -0.399912
 C         0.003271        -0.251716         0.244634
 H         0.721617         3.169800         1.140648
 H         2.065079         3.883724         0.282723
 H         0.498627         3.276286        -0.674728
 H         3.744951         1.788768         1.560266
 H         2.189682         0.634212         1.825556
 H         2.834498        -0.957543        -1.257109
 H         3.361759         1.899094        -1.933711
 H         0.030569        -0.281381         1.299319
 H        -0.927498         0.320251        -0.022717
 H         0.016241        -1.418344        -0.112170
