19
Iteration:  1114
 C         1.257939         3.063928         0.231510
 C         1.987514         1.772413         0.048593
 C         3.257646         1.435903         0.934952
 O         3.546151         0.067814         0.480803
 C         2.660746        -0.036742        -0.630869
 C         2.520210         1.287405        -1.359274
 O         1.160520         0.948246        -1.828482
 C         1.205272         0.444112        -0.331445
 C         0.030115        -0.377704         0.143533
 H         0.878456         3.117125         1.229809
 H         1.898519         3.928260         0.044513
 H         0.379334         3.197086        -0.494263
 H         4.146222         1.961014         0.765032
 H         3.056276         1.538618         2.097254
 H         2.864876        -0.830059        -1.195029
 H         3.238556         1.850666        -2.064559
 H         0.449728        -1.207267         0.717968
 H        -0.846345         0.093431         0.740034
 H        -0.327051        -0.797085        -0.899181
