19
Iteration:   229
 C         1.245248         3.083608         0.194170
 C         1.993005         1.771011         0.024847
 C         3.152720         1.398339         0.953688
 O         3.420189         0.021079         0.565460
 C         2.707599        -0.023443        -0.675638
 C         2.475876         1.368022        -1.387173
 O         1.186193         0.992064        -1.798023
 C         1.302861         0.396171        -0.413210
 C         0.142415        -0.421267         0.148134
 H         0.362074         3.156768         0.869906
 H         2.018178         3.742866         0.678952
 H         1.033726         3.519531        -0.750186
 H         4.073935         2.024841         0.755563
 H         2.968451         1.348803         2.088892
 H         2.811580        -0.859890        -1.264825
 H         3.044128         1.940225        -2.033074
 H         0.444984        -0.913594         1.157784
 H        -0.599702         0.322191         0.457940
 H        -0.021825        -1.182566        -0.556597
