19
Iteration:  2098
 C         1.136679         2.922634         0.240976
 C         2.008975         1.796343         0.008100
 C         3.069780         1.339088         1.027500
 O         3.580078         0.076740         0.444641
 C         2.688094        -0.086213        -0.685949
 C         2.561585         1.362057        -1.386070
 O         1.239390         0.934863        -1.865322
 C         1.293669         0.407012        -0.455753
 C         0.066184        -0.162563         0.310604
 H         0.647002         2.846187         1.164972
 H         1.878776         3.760525         0.107965
 H         0.374759         3.137796        -0.619859
 H         3.998397         1.997243         1.141248
 H         2.551112         1.195231         2.053332
 H         3.168609        -0.942725        -1.288774
 H         3.201626         1.975865        -2.142560
 H         0.356569        -0.303197         1.451802
 H        -0.788498         0.522249         0.097637
 H        -0.314455        -1.136073        -0.132410
