19
Iteration:   124
 C         1.040637         2.927348         0.277640
 C         2.016505         1.757947         0.049527
 C         3.166262         1.462912         0.925095
 O         3.371706        -0.024958         0.552167
 C         2.664991        -0.053552        -0.733459
 C         2.574513         1.292738        -1.357350
 O         1.332313         1.046639        -1.919133
 C         1.300326         0.419347        -0.442037
 C         0.181385        -0.208646         0.294994
 H         0.854573         3.164346         1.312354
 H         1.382818         3.870836        -0.229942
 H         0.078848         2.697439        -0.114312
 H         4.057721         1.970294         0.719818
 H         2.949889         1.435320         1.980018
 H         2.953982        -0.998075        -1.354515
 H         3.408612         1.766404        -2.061216
 H         0.653342        -0.253134         1.183542
 H        -0.773762         0.235950         0.206538
 H        -0.085360        -1.231409        -0.125382
