19
Iteration:  4644
 C         1.193755         2.992544         0.327084
 C         1.967150         1.761818         0.031801
 C         3.072092         1.325935         0.942807
 O         3.429898        -0.050987         0.554589
 C         2.759789        -0.002770        -0.760777
 C         2.539056         1.358911        -1.329642
 O         1.254812         1.000057        -1.882746
 C         1.326315         0.460802        -0.477443
 C         0.148102        -0.249477         0.205071
 H         0.723844         2.976290         1.305555
 H         1.847292         3.956947         0.128328
 H         0.504889         3.181340        -0.456381
 H         3.865704         2.099568         0.912487
 H         2.614216         1.262373         1.948544
 H         2.981076        -0.865871        -1.437620
 H         3.152968         2.038660        -1.825849
 H         0.383042        -0.522965         1.204753
 H        -0.741937         0.392525         0.172514
 H        -0.278437        -1.300196        -0.151673
