19
Iteration:  2399
 C         1.268626         3.048958         0.133550
 C         1.986570         1.750229         0.037676
 C         2.970394         1.259528         1.058858
 O         3.641959         0.133230         0.429881
 C         2.693776        -0.099078        -0.732040
 C         2.498422         1.406072        -1.365128
 O         1.188305         0.925334        -1.796028
 C         1.266839         0.433864        -0.395698
 C         0.095724        -0.236017         0.289353
 H         0.814497         3.290618         1.179577
 H         2.142438         3.788349        -0.087868
 H         0.750650         3.263308        -0.763769
 H         3.787188         1.935524         1.372228
 H         2.477227         0.765502         1.976420
 H         2.851732        -1.070797        -1.333913
 H         3.019814         1.956099        -2.188256
 H         0.505028        -0.958160         1.097627
 H        -0.733615         0.461638         0.529694
 H        -0.180789        -0.948005        -0.422722
