19
Iteration:   513charge 0 multiplicity 1
 C         1.231685         3.008469         0.406153
 C         2.017787         1.740332         0.067389
 C         3.239301         1.391801         0.947102
 O         3.447222         0.082430         0.517004
 C         2.649407        -0.044900        -0.696623
 C         2.615114         1.233031        -1.405214
 O         1.146568         1.039066        -1.903229
 C         1.212784         0.518613        -0.448072
 C         0.063254        -0.352832         0.122224
 H         0.726185         2.722943         1.381950
 H         1.838579         3.994897         0.543371
 H         0.457867         3.256073        -0.277525
 H         3.998895         2.143153         0.597501
 H         3.327737         1.398157         2.131750
 H         2.949998        -1.129566        -1.175788
 H         3.373283         1.594907        -2.088741
 H         0.656782        -0.851013         1.025031
 H        -0.803510         0.264545         0.409775
 H        -0.304911        -1.086279        -0.469080
