19
Iteration:  3373
 C         1.255328         3.013416         0.279326
 C         2.020933         1.741941         0.049968
 C         3.010731         1.335742         0.995874
 O         3.610909         0.102065         0.391274
 C         2.739637        -0.093472        -0.647393
 C         2.558308         1.330443        -1.355779
 O         1.153174         0.917441        -1.796209
 C         1.254177         0.363280        -0.415311
 C         0.057832        -0.170468         0.148289
 H         0.586103         3.061108         1.147833
 H         1.952092         3.871607         0.512536
 H         0.772583         3.213886        -0.663143
 H         3.860947         2.075659         1.118716
 H         2.666761         1.100757         2.045908
 H         3.221735        -0.829700        -1.196052
 H         3.115954         1.932577        -2.075967
 H         0.122821        -0.716646         1.046945
 H        -0.623937         0.670179         0.362853
 H        -0.579741        -0.766894        -0.663385
