19
Iteration:  3833charge 0 multiplicity 1
 C         1.205484         3.065934         0.321238
 C         2.048437         1.786690         0.016070
 C         3.154561         1.378347         0.970539
 O         3.430820         0.053108         0.510061
 C         2.613171        -0.083163        -0.691295
 C         2.583577         1.277167        -1.391639
 O         1.176794         1.005410        -1.808041
 C         1.264612         0.444463        -0.398795
 C         0.157882        -0.317914         0.084760
 H         0.558219         2.935458         1.132134
 H         1.976330         3.985060         0.472845
 H         0.504617         3.477590        -0.434357
 H         4.221621         1.868797         0.931126
 H         2.866199         1.193127         2.077326
 H         2.748588        -0.931803        -1.368859
 H         3.266526         1.856532        -1.993659
 H         0.547651        -0.663712         1.143428
 H        -0.814553         0.217999         0.195558
 H         0.145451        -1.310893        -0.499959
