19
Iteration:    45charge 0 multiplicity 1
 C         1.398700         3.127030         0.176112
 C         1.896645         1.746526         0.071562
 C         2.947121         1.267399         1.111844
 O         3.753671         0.273958         0.367195
 C         2.866403        -0.007684        -0.630564
 C         2.469949         1.299507        -1.361754
 O         1.172074         0.787490        -1.876270
 C         1.101559         0.471888        -0.358139
 C        -0.013206        -0.351888         0.167021
 H         0.497341         3.307112         0.768889
 H         2.221126         3.716564         0.659295
 H         1.274899         3.504930        -0.788728
 H         3.559613         1.995637         1.566372
 H         2.465716         0.739914         1.861911
 H         3.132723        -0.851382        -1.162273
 H         3.096586         1.838003        -2.083914
 H         0.248882        -0.949539         0.971899
 H        -0.756332         0.300473         0.603041
 H        -0.473327        -1.035017        -0.550311
