19
Iteration:  2477
 C         1.132686         3.060191         0.369295
 C         2.065136         1.758710         0.002286
 C         3.246835         1.455981         0.912716
 O         3.451400         0.000450         0.463677
 C         2.696972        -0.082807        -0.614864
 C         2.569749         1.321310        -1.405742
 O         1.205257         0.933106        -1.864456
 C         1.233793         0.434013        -0.415903
 C         0.062751        -0.243489         0.152912
 H         0.379121         2.979688         1.265055
 H         1.835777         3.878390         0.427060
 H         0.377873         3.106290        -0.383516
 H         4.201030         1.945662         0.832799
 H         3.097216         1.363250         2.007532
 H         2.956022        -1.161335        -1.080356
 H         3.109007         1.940363        -2.113289
 H         0.481485        -0.402239         1.260938
 H        -0.838259         0.331308         0.200055
 H        -0.121151        -1.185488        -0.199279
