19
Iteration:    17
 C         1.317863         3.123262         0.188316
 C         1.985597         1.786154         0.014915
 C         2.930170         1.342450         1.128742
 O         3.657977         0.181673         0.416546
 C         2.808599        -0.002467        -0.713670
 C         2.516483         1.315923        -1.378678
 O         1.052554         0.814361        -1.793307
 C         1.320193         0.327569        -0.338704
 C         0.105712        -0.288228         0.137859
 H         0.576887         3.146116         1.001192
 H         2.131613         3.819478         0.494103
 H         0.866886         3.466367        -0.768823
 H         3.665410         2.067070         1.546921
 H         2.255591         0.889036         1.957802
 H         3.067293        -0.871194        -1.375081
 H         3.218479         1.749878        -2.147648
 H        -0.075895        -0.865037         1.080595
 H        -0.542412         0.609840         0.255587
 H        -0.263161        -1.024795        -0.662627
