19
Iteration:  4292
 C         1.294014         3.079838         0.201625
 C         1.970086         1.706312         0.114108
 C         3.004426         1.287768         1.086141
 O         3.587164         0.109108         0.397301
 C         2.762461        -0.033858        -0.728524
 C         2.541146         1.444757        -1.303709
 O         1.220231         0.934947        -1.806299
 C         1.269365         0.320884        -0.463751
 C         0.018444        -0.269131         0.171145
 H         0.686522         3.083621         1.086347
 H         2.068558         3.861912         0.399976
 H         0.876327         3.434774        -0.793814
 H         3.869069         2.017254         1.272318
 H         2.578125         0.789732         2.018350
 H         3.050775        -0.909179        -1.364224
 H         2.864360         2.074394        -2.137806
 H         0.012763        -0.596533         1.287715
 H        -0.868738         0.421235         0.029847
 H        -0.288999        -1.141274        -0.360839
