19
Iteration:  1496charge 0 multiplicity 1
 C         1.154610         2.974270         0.243639
 C         2.026319         1.789638        -0.031529
 C         3.154190         1.395652         0.923429
 O         3.377382         0.022850         0.562921
 C         2.659030        -0.090470        -0.637370
 C         2.653929         1.280978        -1.429697
 O         1.204424         1.081195        -1.860307
 C         1.265153         0.469566        -0.440094
 C         0.176672        -0.297815         0.268119
 H         0.860701         3.012002         1.223227
 H         1.792766         3.843186         0.205700
 H         0.251478         2.989168        -0.429292
 H         4.070946         2.095772         0.727035
 H         2.891752         1.499320         1.927433
 H         2.721796        -1.137307        -1.095675
 H         3.301181         1.901035        -2.226291
 H         0.528763        -0.530912         1.315823
 H        -0.879859        -0.080738         0.329990
 H         0.149862        -1.332076        -0.160439
