19
Iteration:  4115charge 0 multiplicity 1
 C         1.270947         3.120332         0.318271
 C         1.948255         1.736860         0.069264
 C         3.103081         1.398958         0.958538
 O         3.507631         0.002415         0.509788
 C         2.700621        -0.086523        -0.635807
 C         2.473351         1.395298        -1.344091
 O         1.194596         0.949024        -1.953588
 C         1.284808         0.431142        -0.389517
 C         0.132949        -0.324001         0.130249
 H         0.507468         2.879522         1.088921
 H         2.032864         3.754111         0.629251
 H         0.688078         3.484004        -0.487804
 H         4.106610         1.778768         0.870607
 H         2.951040         1.297709         2.042053
 H         2.945289        -0.962867        -1.367023
 H         3.084117         2.042180        -2.025949
 H         0.413001        -0.564980         1.200848
 H        -0.673787         0.405818         0.179234
 H        -0.180884        -1.222778        -0.495802
