19
Iteration:  4688
 C         1.315173         3.099492         0.211032
 C         2.022858         1.811275         0.051844
 C         2.957280         1.295762         1.116401
 O         3.572838         0.074715         0.381746
 C         2.777481        -0.065688        -0.654190
 C         2.554692         1.349368        -1.382272
 O         1.101479         0.979346        -1.771043
 C         1.273549         0.431263        -0.327313
 C         0.093995        -0.312607         0.077120
 H         0.773912         2.985756         1.102429
 H         2.088347         3.955900         0.252946
 H         0.837198         3.140560        -0.693955
 H         3.840390         1.923821         1.319701
 H         2.368379         0.944059         1.996956
 H         2.954454        -1.038647        -1.228736
 H         3.119715         1.950803        -2.031681
 H         0.093887        -0.819742         0.977057
 H        -0.841507         0.247585        -0.124475
 H         0.116686        -1.274472        -0.630853
