19
Iteration:  1118charge 0 multiplicity 1
 C         1.261982         3.085745         0.225196
 C         1.973951         1.746243         0.018987
 C         3.213011         1.421817         0.944743
 O         3.586937         0.066007         0.472817
 C         2.659138        -0.013357        -0.610213
 C         2.520302         1.300653        -1.364318
 O         1.175569         0.952700        -1.794924
 C         1.198563         0.426452        -0.355099
 C         0.007495        -0.381669         0.149256
 H         0.843187         3.113317         1.242758
 H         1.904492         3.971225        -0.038917
 H         0.453850         3.199874        -0.447320
 H         4.163308         2.010197         0.717783
 H         3.065871         1.443605         1.988460
 H         2.890424        -0.977004        -1.267449
 H         3.229350         1.876792        -1.962356
 H         0.450249        -1.197446         0.768205
 H        -0.762106         0.104738         0.686289
 H        -0.373490        -0.694630        -0.812803
