19
Iteration:  1050
 C         1.251023         3.043460         0.250503
 C         1.974761         1.709122         0.106869
 C         3.033837         1.274155         1.075609
 O         3.542360         0.125615         0.341997
 C         2.659249        -0.019065        -0.697619
 C         2.546081         1.341340        -1.377269
 O         1.204535         0.917360        -1.899031
 C         1.274870         0.407192        -0.454814
 C         0.167264        -0.221026         0.322637
 H         0.607007         3.017631         1.053924
 H         2.067027         3.799928         0.327265
 H         0.648114         3.332887        -0.684384
 H         3.837295         2.032352         1.135686
 H         2.615021         1.030756         2.126297
 H         2.895697        -0.851984        -1.264148
 H         3.086462         1.697929        -2.359254
 H         0.504870        -0.080544         1.330712
 H        -0.804641         0.377522         0.292277
 H        -0.209507        -1.286826         0.055237
