19
Iteration:  1567charge 0 multiplicity 1
 C         1.314960         3.072434         0.179987
 C         1.956652         1.723606         0.015484
 C         3.028645         1.278107         1.123462
 O         3.741901         0.281816         0.375046
 C         2.797093        -0.100834        -0.640380
 C         2.512501         1.258690        -1.403787
 O         1.130215         0.858299        -1.811449
 C         1.205531         0.385304        -0.443842
 C         0.003513        -0.199184         0.201575
 H         0.332847         3.080335         0.846828
 H         2.004166         3.759213         0.720161
 H         0.981374         3.387582        -0.765505
 H         3.623015         2.064081         1.573708
 H         2.382572         0.827820         1.972191
 H         3.007645        -1.037539        -1.065655
 H         3.147713         1.750832        -2.006388
 H         0.156873        -0.933319         0.945433
 H        -0.590433         0.596237         0.696311
 H        -0.735254        -0.572666        -0.513505
