19
Iteration:  4225
 C         1.161654         2.970403         0.335473
 C         1.926156         1.749049         0.057756
 C         3.170245         1.384221         1.007750
 O         3.443491        -0.012326         0.551363
 C         2.822009        -0.071394        -0.763802
 C         2.571308         1.365584        -1.378465
 O         1.232276         0.953995        -1.863701
 C         1.204535         0.425878        -0.514601
 C         0.120163        -0.179773         0.182440
 H         0.704779         2.901088         1.306661
 H         1.667989         3.874593         0.366185
 H         0.378898         3.199907        -0.415261
 H         4.094003         2.006457         0.695453
 H         2.957678         1.498424         2.123918
 H         3.052002        -0.989806        -1.420427
 H         3.234186         1.933847        -2.029597
 H         0.427076        -0.660519         1.186241
 H        -0.732933         0.518193         0.355387
 H        -0.229329        -0.900799        -0.471835
