19
Iteration:   859
 C         1.252837         3.040737         0.182053
 C         2.089221         1.721491         0.007987
 C         3.020941         1.232941         1.143915
 O         3.648440         0.108245         0.395168
 C         2.815329        -0.035117        -0.783135
 C         2.434444         1.347619        -1.451171
 O         1.079827         0.981651        -1.684443
 C         1.297845         0.350540        -0.443812
 C         0.068176        -0.184384         0.207673
 H         0.495807         3.027869         1.082323
 H         1.894902         3.892572         0.165829
 H         0.667262         3.168632        -0.650928
 H         3.842134         1.764957         1.523851
 H         2.377642         0.901153         2.098994
 H         3.148381        -0.983922        -1.414893
 H         3.002523         1.980411        -2.041941
 H         0.305876        -0.565997         1.343060
 H        -0.568116         0.692163         0.442090
 H        -0.477883        -0.821921        -0.466560
