19
Iteration:   651
 C         1.224933         3.027993         0.475013
 C         1.997521         1.770199         0.029650
 C         3.225199         1.406807         0.814402
 O         3.402810         0.032912         0.539152
 C         2.725852        -0.033564        -0.700214
 C         2.565657         1.248627        -1.418245
 O         1.221425         0.992965        -1.847399
 C         1.222961         0.424361        -0.445092
 C         0.081106        -0.282455         0.135887
 H         0.769170         2.771027         1.526141
 H         1.768558         3.950899         0.555060
 H         0.364936         3.211225        -0.196277
 H         4.148067         1.950023         0.487261
 H         3.125984         1.723590         1.935225
 H         2.899556        -1.026076        -1.202314
 H         3.223796         1.804842        -2.051268
 H         0.404187        -0.771557         1.123770
 H        -0.717042         0.430203         0.434493
 H        -0.415162        -1.022346        -0.561447
