19
Iteration:   471charge 0 multiplicity 1
 C         1.259677         3.042157         0.257817
 C         2.037454         1.732670         0.121103
 C         3.126390         1.209752         1.097013
 O         3.652521         0.120070         0.414089
 C         2.827543         0.080093        -0.752230
 C         2.443606         1.342831        -1.387154
 O         1.110889         0.823869        -1.752845
 C         1.275239         0.396396        -0.413943
 C        -0.017520        -0.146638         0.122448
 H         0.621817         3.175448         1.157228
 H         1.950597         4.008461         0.139296
 H         0.553757         3.162607        -0.577130
 H         3.950400         1.836507         1.205557
 H         2.684408         0.851976         2.142293
 H         3.129670        -0.832814        -1.419940
 H         2.941607         1.930475        -2.172107
 H         0.009848        -1.167117         0.630906
 H        -0.766299         0.586985         0.410896
 H        -0.630468        -0.365569        -0.813019
