19
Iteration:  2826charge 0 multiplicity 1
 C         1.213639         3.033081         0.173616
 C         2.043924         1.740004         0.015641
 C         3.022780         1.235139         1.077291
 O         3.617900         0.113449         0.469549
 C         2.762970        -0.041075        -0.706679
 C         2.480043         1.391601        -1.447054
 O         1.175086         0.896097        -1.847470
 C         1.328602         0.387824        -0.434495
 C         0.067764        -0.150613         0.292572
 H         0.671491         3.163852         1.212905
 H         1.916951         3.897930         0.192799
 H         0.477506         3.071791        -0.552172
 H         3.817788         1.935913         1.319973
 H         2.442672         0.915644         1.977190
 H         2.854491        -1.029534        -1.278574
 H         3.031311         2.045892        -2.110643
 H         0.345058        -0.770823         1.168297
 H        -0.709059         0.541144         0.606805
 H        -0.483071        -0.895794        -0.327215
