19
Iteration:  4807
 C         1.130747         3.019732         0.229840
 C         2.015040         1.739573         0.047195
 C         3.049446         1.287395         1.019373
 O         3.588577         0.068525         0.491611
 C         2.730590        -0.120793        -0.746544
 C         2.598968         1.364218        -1.332779
 O         1.245515         1.041042        -1.877545
 C         1.239958         0.403448        -0.458304
 C         0.039224        -0.236173         0.233001
 H         0.592668         3.011755         1.153392
 H         1.821505         3.934421         0.267066
 H         0.542393         3.285890        -0.644527
 H         3.893454         1.945803         1.168944
 H         2.707109         1.040199         2.094483
 H         2.906468        -1.055672        -1.413212
 H         3.205626         1.997740        -1.875237
 H         0.481607        -0.541414         1.119648
 H        -0.688671         0.531067         0.470941
 H        -0.370242        -1.210367        -0.253858
