19
Iteration:  3643
 C         1.345917         3.141983         0.223078
 C         2.035589         1.841082         0.041248
 C         3.054262         1.251210         1.144070
 O         3.576236         0.080624         0.401071
 C         2.769605        -0.074134        -0.634984
 C         2.481770         1.291808        -1.374182
 O         1.062137         0.923611        -1.820786
 C         1.220379         0.515865        -0.419259
 C         0.113681        -0.320884         0.079213
 H         0.568653         2.970525         0.985981
 H         2.127040         3.836291         0.521233
 H         0.830236         3.488020        -0.609242
 H         3.949726         1.917015         1.270802
 H         2.558188         0.958051         2.094448
 H         2.913638        -0.995419        -1.323320
 H         3.147193         1.957146        -1.979839
 H         0.366664        -0.709121         1.066701
 H        -0.864098         0.234351         0.220318
 H         0.012853        -1.303925        -0.426405
