19
Iteration:  3418charge 0 multiplicity 1
 C         1.195766         3.081210         0.262354
 C         2.046799         1.803215         0.039542
 C         3.161620         1.319578         0.915800
 O         3.399399         0.007242         0.508516
 C         2.688841        -0.070089        -0.733720
 C         2.584036         1.395624        -1.349897
 O         1.184808         0.952121        -1.789868
 C         1.292717         0.463549        -0.430855
 C         0.155993        -0.320926         0.187276
 H         0.897502         3.190467         1.362751
 H         1.732052         4.023491         0.085212
 H         0.404887         3.108883        -0.581799
 H         4.123277         1.956793         1.035630
 H         2.661746         1.317212         1.963996
 H         2.556403        -1.083557        -1.153424
 H         3.395081         1.975023        -1.934951
 H         0.300222        -0.750724         1.151779
 H        -0.751924         0.310151         0.264495
 H        -0.095388        -1.283162        -0.559256
