19
Iteration:  2320
 C         1.231198         3.074691         0.298465
 C         1.997413         1.796202         0.023421
 C         3.178194         1.373347         0.899934
 O         3.507589         0.063733         0.548887
 C         2.693126        -0.074903        -0.665600
 C         2.508785         1.307416        -1.456396
 O         1.212530         0.936283        -1.823414
 C         1.225778         0.406296        -0.419844
 C         0.104590        -0.318150         0.175225
 H         0.693494         3.028094         1.288865
 H         1.848002         4.100447         0.490350
 H         0.490874         3.146741        -0.492069
 H         4.050916         2.016563         0.830158
 H         2.799712         1.362839         1.985508
 H         2.806720        -0.954191        -1.132664
 H         3.201656         1.871524        -2.037522
 H         0.333545        -0.298112         1.210837
 H        -0.765532         0.404081         0.139614
 H        -0.168335        -1.280570        -0.336382
