19
Iteration:   189charge 0 multiplicity 1
 C         1.378575         3.121837         0.194118
 C         1.927443         1.750075         0.039569
 C         2.989216         1.253540         1.078379
 O         3.730359         0.233804         0.380653
 C         2.761187        -0.012525        -0.636843
 C         2.455208         1.331850        -1.394101
 O         1.152609         0.836579        -1.775330
 C         1.225314         0.426530        -0.320844
 C         0.014958        -0.314148         0.107175
 H         0.750808         3.144497         1.081187
 H         2.268690         3.807255         0.375301
 H         0.840404         3.498622        -0.649116
 H         3.594609         1.982594         1.651658
 H         2.395218         0.801508         1.810530
 H         2.987197        -1.038823        -1.185219
 H         3.086760         1.844363        -2.237337
 H         0.069035        -0.715392         1.047456
 H        -0.901791         0.282788         0.009122
 H        -0.154352        -1.234728        -0.578859
