19
Iteration:  2879
 C         1.276871         2.978860         0.225264
 C         2.100804         1.802611         0.001488
 C         3.135239         1.447879         0.994659
 O         3.435646        -0.026728         0.560716
 C         2.718758        -0.095624        -0.630104
 C         2.447297         1.350808        -1.454896
 O         1.159318         0.999397        -1.820498
 C         1.282189         0.471770        -0.459664
 C         0.156823        -0.333809         0.176920
 H         0.691882         2.895328         1.254624
 H         1.774377         4.075102         0.220286
 H         0.560883         3.070269        -0.561523
 H         4.115095         2.082694         0.885191
 H         2.687002         1.398381         2.023195
 H         2.861274        -0.884733        -1.265937
 H         3.001728         2.006682        -2.062866
 H         0.248035        -0.365185         1.326520
 H        -0.854406         0.169870         0.257320
 H         0.060059        -1.303247        -0.345835
