19
Iteration:  3209charge 0 multiplicity 1
 C         1.199293         3.042480         0.244096
 C         2.006315         1.820925         0.038679
 C         3.033244         1.321292         1.064263
 O         3.610679         0.078957         0.369498
 C         2.797565        -0.042241        -0.686876
 C         2.539014         1.306878        -1.366096
 O         1.202397         0.862193        -1.799003
 C         1.262182         0.424765        -0.357945
 C        -0.018588        -0.182435         0.148557
 H         0.587552         3.207156         1.190592
 H         2.135554         3.761717         0.427526
 H         0.862112         3.511494        -0.639939
 H         3.872710         1.959593         1.423802
 H         2.500384         0.971016         1.895296
 H         3.016717        -0.994014        -1.203689
 H         3.075209         1.755737        -2.175075
 H         0.249140        -0.784327         0.991819
 H        -0.844742         0.412816         0.477654
 H        -0.208465        -0.979911        -0.715681
