19
Iteration:  3039
 C         1.264473         3.067618         0.250221
 C         2.015709         1.765874        -0.012561
 C         3.159702         1.335011         1.032835
 O         3.487251         0.037048         0.516546
 C         2.753697         0.023211        -0.677106
 C         2.547400         1.331952        -1.423600
 O         1.156619         0.907625        -1.786065
 C         1.228754         0.423921        -0.441008
 C         0.080167        -0.290277         0.164955
 H         0.533771         2.981063         1.091145
 H         1.842849         4.017195         0.375747
 H         0.607468         3.170147        -0.754843
 H         3.995682         1.972691         1.055782
 H         2.649004         1.280234         1.985347
 H         2.983155        -0.785127        -1.252020
 H         3.134504         1.720360        -2.265978
 H         0.434943        -0.649331         1.222011
 H        -0.724769         0.502057         0.370711
 H        -0.275724        -1.034599        -0.419818
