19
Iteration:  4211charge 0 multiplicity 1
 C         1.165867         3.018225         0.277844
 C         1.990303         1.746744         0.060767
 C         3.098546         1.276510         0.946054
 O         3.483641        -0.026430         0.524633
 C         2.739471         0.008893        -0.663392
 C         2.536071         1.408541        -1.348680
 O         1.230879         0.980872        -1.897263
 C         1.346321         0.417539        -0.450333
 C         0.073819        -0.238268         0.179814
 H         0.607276         3.098980         1.309228
 H         1.891733         3.800892         0.030968
 H         0.318358         3.009457        -0.382828
 H         3.930218         2.064907         0.827515
 H         2.950925         1.225388         2.060570
 H         3.044459        -0.903861        -1.252889
 H         3.111476         2.160471        -2.073125
 H         0.472187        -0.569172         1.075884
 H        -0.617757         0.499015         0.467705
 H        -0.463767        -1.138534        -0.309200
