19
Iteration:  1499charge 0 multiplicity 1
 C         1.144865         2.965733         0.233670
 C         2.027691         1.782821        -0.058411
 C         3.154625         1.415591         0.898365
 O         3.389848         0.002219         0.578904
 C         2.661751        -0.086220        -0.644204
 C         2.643550         1.272177        -1.409545
 O         1.206636         1.088871        -1.862473
 C         1.240791         0.478018        -0.437748
 C         0.184093        -0.299215         0.265805
 H         0.802115         2.971249         1.366664
 H         1.810778         3.940040         0.307324
 H         0.334624         3.006395        -0.426521
 H         4.087789         2.092532         0.710720
 H         2.872021         1.530898         1.960342
 H         2.752255        -1.087116        -1.074425
 H         3.295095         1.815929        -2.133693
 H         0.587509        -0.596830         1.309994
 H        -0.860624         0.005474         0.302523
 H         0.162553        -1.297912        -0.146041
