19
Iteration:  3835
 C         1.215546         3.068163         0.323757
 C         2.012426         1.798366         0.025087
 C         3.160175         1.357262         0.980695
 O         3.443205         0.051986         0.511708
 C         2.613977        -0.059994        -0.681357
 C         2.580916         1.282051        -1.411249
 O         1.180454         0.994537        -1.814360
 C         1.264901         0.432136        -0.408393
 C         0.164375        -0.313216         0.084366
 H         0.594288         2.980592         1.194307
 H         1.877426         3.964055         0.492477
 H         0.475208         3.421834        -0.505213
 H         4.160073         1.860821         0.958219
 H         2.942882         1.157591         2.038666
 H         2.704411        -0.955998        -1.393895
 H         3.320889         1.800494        -1.978405
 H         0.551427        -0.650906         1.164072
 H        -0.788908         0.307883         0.183206
 H         0.111868        -1.225634        -0.447853
