19
Iteration:  3760charge 0 multiplicity 1
 C         1.298716         3.044305         0.230635
 C         1.999053         1.775736         0.052752
 C         3.039806         1.204995         1.145075
 O         3.624270         0.133286         0.445669
 C         2.748691        -0.056197        -0.776200
 C         2.487602         1.372657        -1.397108
 O         1.191504         0.969954        -1.873629
 C         1.217599         0.435127        -0.421431
 C         0.028883        -0.283100         0.218984
 H         0.809331         3.283371         1.228432
 H         2.085941         3.701651         0.040188
 H         0.493816         3.387722        -0.532812
 H         3.821241         1.833986         1.496425
 H         2.441325         0.823200         1.978391
 H         3.016004        -1.025068        -1.330158
 H         3.240968         1.864768        -1.995300
 H         0.348812        -0.772489         1.181904
 H        -0.751526         0.491783         0.395394
 H        -0.318392        -0.979503        -0.433708
