19
Iteration:  1713charge 0 multiplicity 1
 C         1.305637         3.078060         0.195186
 C         1.914874         1.715222         0.070111
 C         3.011462         1.235069         1.085314
 O         3.758178         0.226897         0.406074
 C         2.957689        -0.036701        -0.736399
 C         2.506167         1.277443        -1.375071
 O         1.104131         0.826306        -1.824333
 C         1.190236         0.396055        -0.356972
 C        -0.079961        -0.136859         0.192099
 H         0.386283         3.130427         0.844198
 H         1.930231         3.895462         0.537794
 H         0.973083         3.319743        -0.951661
 H         3.625167         2.050768         1.395631
 H         2.416188         0.759925         2.004248
 H         3.127705        -1.000652        -1.302967
 H         3.225504         1.803217        -1.966851
 H         0.049428        -0.391519         1.249468
 H        -0.885659         0.582188         0.008937
 H        -0.229298        -1.160147        -0.200943
