19
Iteration:  1980
 C         1.257462         3.115439         0.113029
 C         1.997153         1.749120         0.065439
 C         3.008638         1.336266         1.161278
 O         3.630029         0.089069         0.419654
 C         2.750258        -0.002146        -0.700604
 C         2.541548         1.305938        -1.351569
 O         1.131332         0.899499        -1.806660
 C         1.233370         0.427048        -0.422572
 C         0.131160        -0.314600         0.170257
 H         0.901614         3.242847         1.109525
 H         2.017756         3.926716        -0.282677
 H         0.405832         3.359450        -0.469088
 H         3.853607         1.897036         1.400184
 H         2.544729         0.927636         2.111027
 H         2.808492        -1.012824        -1.290702
 H         3.057180         2.055183        -2.085656
 H         0.452772        -0.743064         1.137146
 H        -0.707032         0.397458         0.362395
 H        -0.466231        -1.092899        -0.405564
