19
Iteration:  2530
 C         1.330393         3.154396         0.172154
 C         2.042908         1.726380         0.018314
 C         2.979462         1.237222         1.118695
 O         3.654409         0.135766         0.450005
 C         2.694751        -0.057050        -0.741489
 C         2.449168         1.366394        -1.394635
 O         1.109987         0.964151        -1.801104
 C         1.275766         0.322852        -0.402750
 C         0.113166        -0.301560         0.188113
 H         0.847256         3.306280         1.237769
 H         2.005969         4.147832         0.150636
 H         0.645164         3.220300        -0.649947
 H         3.820637         1.885442         1.217353
 H         2.429347         0.999196         2.075537
 H         3.083090        -0.988616        -1.234377
 H         3.049229         1.789862        -2.182380
 H         0.280634        -0.349521         1.351561
 H        -0.754258         0.369242         0.232409
 H        -0.181675        -1.182941        -0.266114
