19
Iteration:  4534charge 0 multiplicity 1
 C         1.284345         3.121898         0.287419
 C         2.051894         1.802675         0.088827
 C         3.018335         1.301473         1.057795
 O         3.486689         0.092945         0.468011
 C         2.713794        -0.076184        -0.739481
 C         2.517960         1.340859        -1.391122
 O         1.213248         0.983761        -1.771986
 C         1.257531         0.411372        -0.439325
 C         0.099239        -0.369977         0.075591
 H         0.708666         3.077211         1.198937
 H         2.134867         3.980630         0.271466
 H         0.600637         3.137789        -0.622003
 H         3.786358         2.066337         1.281923
 H         2.654712         1.168161         2.073255
 H         2.912755        -0.954106        -1.300046
 H         3.241806         1.751289        -2.080103
 H         0.476463        -0.719303         1.062884
 H        -0.822061         0.196476         0.280335
 H        -0.130636        -1.133765        -0.759409
