19
Iteration:   840charge 0 multiplicity 1
 C         1.218671         2.946283         0.312628
 C         2.053387         1.803115         0.047665
 C         3.106277         1.325189         0.966419
 O         3.525944         0.057367         0.415241
 C         2.719140        -0.061558        -0.729363
 C         2.555789         1.346268        -1.389060
 O         1.137352         0.941995        -1.812249
 C         1.291459         0.470436        -0.394476
 C         0.101669        -0.200274         0.215945
 H         0.682429         2.806228         1.301984
 H         1.800014         3.896285         0.354294
 H         0.416284         3.090725        -0.445113
 H         3.919680         2.018702         1.112577
 H         2.788416         1.016138         1.968155
 H         2.829198        -0.945513        -1.303280
 H         3.230628         1.742280        -2.183448
 H         0.269009        -0.449974         1.265702
 H        -0.784578         0.451418         0.158537
 H        -0.236764        -0.987795        -0.418519
