19
Iteration:  4588charge 0 multiplicity 1
 C         1.174826         2.991958         0.267479
 C         1.994644         1.768023         0.035905
 C         3.024409         1.289039         1.086686
 O         3.578617         0.098085         0.385814
 C         2.755147        -0.080538        -0.663532
 C         2.607406         1.317005        -1.394684
 O         1.231488         1.009032        -1.830078
 C         1.283591         0.423311        -0.423415
 C         0.028786        -0.208937         0.163343
 H         0.613095         2.868097         1.177757
 H         2.023607         3.726587         0.551122
 H         0.492042         3.119770        -0.621525
 H         3.754776         2.106344         1.166864
 H         2.649985         0.922804         2.093094
 H         2.931848        -0.979099        -1.192022
 H         3.322397         1.949387        -1.963778
 H         0.080134        -0.863219         1.073141
 H        -0.750819         0.532453         0.432421
 H        -0.416968        -0.910766        -0.656840
