19
Iteration:  3738charge 0 multiplicity 1
 C         1.266635         2.966431         0.287257
 C         2.045906         1.761055         0.024567
 C         2.938943         1.230274         1.093733
 O         3.617590         0.098858         0.427659
 C         2.736507        -0.068690        -0.717698
 C         2.590314         1.289656        -1.425149
 O         1.129065         0.995812        -1.779185
 C         1.271763         0.451869        -0.450697
 C         0.103857        -0.158053         0.142484
 H         0.886789         3.026796         1.376628
 H         1.698364         3.894532         0.021426
 H         0.230669         2.951672        -0.308176
 H         3.607921         2.041785         1.190489
 H         2.385688         1.033749         2.001133
 H         2.983128        -1.033341        -1.267997
 H         3.252097         1.828126        -2.109434
 H         0.521887        -0.582497         1.109847
 H        -0.536272         0.715746         0.383611
 H        -0.337274        -0.881099        -0.411767
