19
Iteration:  4320charge 0 multiplicity 1
 C         1.318841         3.086443         0.156572
 C         1.975907         1.739595         0.136503
 C         2.989787         1.255937         1.097018
 O         3.538149         0.041958         0.464368
 C         2.777011         0.012349        -0.676334
 C         2.594459         1.376997        -1.306898
 O         1.092811         1.013430        -1.853748
 C         1.219535         0.407466        -0.500051
 C         0.172110        -0.312990         0.163013
 H         0.897087         3.224823         1.214903
 H         1.960067         3.939845        -0.031255
 H         0.563367         3.197781        -0.604761
 H         3.800944         1.928406         1.276384
 H         2.608587         0.883162         2.007065
 H         3.026350        -0.856849        -1.358311
 H         3.067801         1.849427        -2.176765
 H         0.281033        -0.597195         1.163025
 H        -0.774972         0.193298         0.140816
 H        -0.017649        -1.254936        -0.418698
