19
Iteration:   588charge 0 multiplicity 1
 C         1.308976         3.031290         0.194991
 C         1.988193         1.706080         0.025447
 C         2.943789         1.161438         1.049352
 O         3.700883         0.197258         0.273199
 C         2.694660        -0.057855        -0.724705
 C         2.608780         1.303900        -1.291630
 O         1.162400         1.053082        -1.765001
 C         1.235462         0.452846        -0.420887
 C         0.010334        -0.261183         0.280177
 H         0.711213         3.125243         1.123176
 H         2.065050         3.786290         0.174262
 H         0.701702         3.192653        -0.587400
 H         3.750853         1.732256         1.599083
 H         2.393119         0.693682         1.740992
 H         2.758259        -1.111433        -1.312304
 H         3.097772         2.101206        -1.790208
 H         0.290280        -0.268469         1.407514
 H        -0.926275         0.131536        -0.073756
 H        -0.049239        -1.237616         0.045338
