19
Iteration:  4901charge 0 multiplicity 1
 C         1.262696         3.062689         0.315222
 C         1.965797         1.752676         0.037551
 C         3.085352         1.307827         0.981567
 O         3.476910        -0.029211         0.568448
 C         2.682798        -0.061625        -0.723214
 C         2.515939         1.425039        -1.291504
 O         1.212115         0.980180        -1.894836
 C         1.288725         0.436223        -0.509052
 C         0.129708        -0.314078         0.166651
 H         0.852723         3.207431         1.335332
 H         1.876503         3.854537         0.005833
 H         0.447448         3.399355        -0.418124
 H         3.863372         2.142794         0.719270
 H         2.904154         1.555526         2.014447
 H         3.075441        -0.831708        -1.396434
 H         3.178126         2.007249        -2.094791
 H         0.530133        -0.669455         1.208051
 H        -0.818976         0.229242         0.286627
 H        -0.028138        -1.241546        -0.344276
