19
Iteration:  2286
 C         1.240652         2.987330         0.256960
 C         1.992214         1.742764         0.039495
 C         3.058695         1.268446         1.034687
 O         3.626458         0.160747         0.437897
 C         2.796430        -0.026325        -0.731572
 C         2.526978         1.268871        -1.426530
 O         1.159063         0.877375        -1.742472
 C         1.259885         0.436160        -0.401264
 C         0.036764        -0.146676         0.152225
 H         0.536946         2.994352         1.073025
 H         1.933257         3.963791         0.099939
 H         0.562759         3.057478        -0.673830
 H         3.787705         2.058530         1.242559
 H         2.651269         0.989104         2.067660
 H         2.879732        -0.935173        -1.120698
 H         3.058776         1.865607        -2.146906
 H         0.338824        -0.322307         1.142308
 H        -0.721917         0.665914         0.136238
 H        -0.447152        -1.135679        -0.216410
