19
Iteration:   412charge 0 multiplicity 1
 C         1.195774         3.052929         0.282398
 C         2.070036         1.809279         0.035938
 C         3.044408         1.284086         1.108144
 O         3.405906        -0.051478         0.490198
 C         2.717021        -0.010409        -0.775462
 C         2.525022         1.346744        -1.453446
 O         1.169026         0.986561        -1.862297
 C         1.311197         0.461025        -0.521046
 C         0.265424        -0.263146         0.257336
 H         0.663017         2.936946         1.264065
 H         1.732098         3.955235         0.358348
 H         0.424067         3.145755        -0.520600
 H         4.013692         1.846203         1.131074
 H         2.609321         1.289297         2.123985
 H         2.692223        -0.917862        -1.273443
 H         3.073722         2.041835        -2.072099
 H         0.683895        -0.619941         1.176797
 H        -0.478883         0.428332         0.623529
 H        -0.079129        -1.055323        -0.253451
