19
Iteration:  4370
 C         1.219168         3.040609         0.314906
 C         1.992740         1.759550         0.040850
 C         3.113365         1.350058         1.039981
 O         3.444345         0.028061         0.572364
 C         2.680416        -0.071409        -0.736341
 C         2.610004         1.395788        -1.378370
 O         1.191940         0.960631        -1.881364
 C         1.207259         0.431465        -0.510360
 C         0.165266        -0.286313         0.088213
 H         0.854159         3.032321         1.308701
 H         1.936001         3.963906         0.262401
 H         0.351143         3.282643        -0.369230
 H         4.149922         1.867038         1.027611
 H         2.909922         1.443111         2.178772
 H         2.860980        -0.982566        -1.202415
 H         3.295439         2.029311        -1.936372
 H         0.611195        -0.726824         1.016400
 H        -0.688089         0.218838         0.593927
 H        -0.244354        -1.204203        -0.429654
