19
Iteration:  2199charge 0 multiplicity 1
 C         1.252879         3.067191         0.276514
 C         2.037838         1.812659        -0.034894
 C         3.147825         1.451371         0.951702
 O         3.386213         0.008012         0.516343
 C         2.673331        -0.059840        -0.647900
 C         2.539340         1.320555        -1.386297
 O         1.218836         0.926876        -1.855278
 C         1.206406         0.462711        -0.416804
 C         0.180788        -0.372936         0.229223
 H         0.656046         3.118249         1.137115
 H         2.011143         3.970272         0.386215
 H         0.530138         3.066517        -0.477561
 H         4.060043         2.057815         0.835466
 H         2.982892         1.504620         2.130559
 H         2.891652        -0.795490        -1.286818
 H         3.067385         1.894362        -2.137504
 H         0.546037        -0.790607         1.153937
 H        -0.820754         0.086714         0.572799
 H         0.009481        -1.073191        -0.731439
