19
Iteration:  2616
 C         1.190744         2.961717         0.294113
 C         2.049679         1.842734        -0.011965
 C         3.276057         1.391910         0.985838
 O         3.471722         0.039891         0.500291
 C         2.645051        -0.035486        -0.690059
 C         2.511294         1.319990        -1.359459
 O         1.200289         0.905973        -1.882929
 C         1.248846         0.459354        -0.431406
 C         0.081773        -0.269474         0.205793
 H         0.493430         2.898372         1.181230
 H         1.813740         3.918097         0.520283
 H         0.485952         2.978394        -0.477804
 H         4.185057         2.097766         0.922684
 H         3.016893         1.546096         2.094067
 H         2.702434        -1.000719        -1.122888
 H         3.212317         1.802320        -2.039134
 H         0.425308        -0.877610         1.166994
 H        -0.739705         0.512543         0.397385
 H        -0.307673        -0.879534        -0.620255
