19
Iteration:  4016
 C         1.311471         3.092685         0.209982
 C         2.031313         1.722022        -0.000203
 C         2.972081         1.217532         1.098640
 O         3.608163         0.114725         0.429390
 C         2.765443        -0.051617        -0.658755
 C         2.429045         1.369594        -1.383714
 O         1.172124         0.958251        -1.801658
 C         1.199422         0.433726        -0.441876
 C         0.122091        -0.270861         0.178874
 H         0.961803         3.058468         1.327759
 H         2.142716         3.748371         0.051306
 H         0.561470         3.331439        -0.499965
 H         3.703016         1.942723         1.342368
 H         2.395588         0.899827         1.979594
 H         3.168583        -0.920432        -1.218150
 H         3.102759         1.997290        -2.038973
 H         0.492642        -0.591503         1.132893
 H        -0.662723         0.470557         0.252042
 H        -0.240336        -1.079992        -0.591204
