19
Iteration:  4704
 C         1.328776         3.123863         0.177176
 C         2.061568         1.729794         0.036257
 C         3.047789         1.237177         1.101776
 O         3.640386         0.111683         0.500308
 C         2.740618        -0.029059        -0.726070
 C         2.490048         1.367595        -1.350954
 O         1.117515         0.933257        -1.716381
 C         1.231751         0.461106        -0.413573
 C         0.031501        -0.357431         0.022943
 H         0.628818         3.255859         1.114149
 H         1.997648         3.937676         0.421676
 H         0.563880         3.449997        -0.662833
 H         3.831296         1.985609         1.395868
 H         2.378943         0.908521         1.909894
 H         2.943292        -0.888625        -1.342279
 H         3.146119         1.856929        -2.201709
 H         0.198679        -0.691744         1.141006
 H        -0.838018         0.354636         0.033512
 H        -0.075521        -1.104963        -0.699269
