19
Iteration:  3031charge 0 multiplicity 1
 C         1.234606         2.978679         0.226164
 C         2.027991         1.746790         0.006327
 C         3.115593         1.359354         0.999804
 O         3.508959         0.017683         0.569926
 C         2.742735        -0.043763        -0.687960
 C         2.540251         1.354594        -1.385374
 O         1.158854         0.940174        -1.820377
 C         1.221096         0.469647        -0.488581
 C         0.099931        -0.214436         0.227370
 H         0.603844         3.032621         1.052507
 H         1.952825         3.873857         0.344519
 H         0.600430         3.195940        -0.620773
 H         3.948595         2.083751         0.832798
 H         2.810699         1.384472         2.036833
 H         3.062477        -0.811233        -1.412094
 H         3.112380         1.847148        -2.183016
 H         0.601329        -0.834056         1.013613
 H        -0.849317         0.339339         0.381358
 H        -0.235719        -1.069605        -0.388176
