19
Iteration:  1882charge 0 multiplicity 1
 C         1.225430         3.008279         0.203612
 C         1.984614         1.740780         0.063090
 C         3.114445         1.387551         0.998703
 O         3.678477         0.167162         0.419937
 C         2.753666        -0.083132        -0.655008
 C         2.519605         1.236613        -1.330088
 O         1.188119         0.936826        -1.831803
 C         1.156361         0.422210        -0.439418
 C        -0.006355        -0.250435         0.175442
 H         0.332360         3.002371         0.932054
 H         1.933832         3.886462         0.549193
 H         0.898244         3.361765        -0.763728
 H         3.950106         2.106899         1.302782
 H         2.655763         0.867791         1.916243
 H         3.027834        -1.114004        -1.124429
 H         3.293106         1.970719        -1.818492
 H         0.263194        -0.354891         1.183810
 H        -0.788862         0.502162         0.193678
 H        -0.319843        -1.254500        -0.164398
