19
Iteration:  2423charge 0 multiplicity 1
 C         1.240864         3.087871         0.204133
 C         2.013553         1.761039         0.041828
 C         3.052421         1.264895         1.061348
 O         3.631986         0.108853         0.455073
 C         2.746946        -0.009716        -0.756761
 C         2.557319         1.290646        -1.355036
 O         1.146412         0.903774        -1.839323
 C         1.234245         0.411679        -0.419920
 C         0.050253        -0.210110         0.255891
 H         0.694854         3.015781         1.193028
 H         1.769981         3.994619         0.139605
 H         0.573759         3.136713        -0.687714
 H         3.779421         2.095333         1.303960
 H         2.583847         0.874261         2.016941
 H         2.978213        -0.947073        -1.476091
 H         3.099797         1.717559        -2.207249
 H         0.414903        -0.805111         1.187176
 H        -0.552080         0.653298         0.472904
 H        -0.458594        -0.912374        -0.354750
