19
Iteration:  3780
 C         1.368709         3.166803         0.234876
 C         1.921265         1.751486         0.096362
 C         2.985979         1.327485         1.025999
 O         3.535832         0.007404         0.378735
 C         2.763587        -0.011798        -0.697856
 C         2.525489         1.398696        -1.287622
 O         1.190122         0.905957        -1.774470
 C         1.249596         0.411435        -0.448587
 C         0.111952        -0.315126         0.160581
 H         0.595881         3.089713         0.960993
 H         2.104228         3.974604         0.230369
 H         0.704206         3.409851        -0.664329
 H         3.858579         1.929637         1.080135
 H         2.770319         0.851739         1.946454
 H         2.847644        -0.866496        -1.403243
 H         3.124076         2.000537        -1.931982
 H         0.351063        -0.803073         1.187216
 H        -0.811971         0.295144         0.267748
 H        -0.196530        -1.063943        -0.526084
