19
Iteration:  4224
 C         1.156199         2.978898         0.330742
 C         1.930092         1.732324         0.054656
 C         3.163177         1.383246         1.008444
 O         3.442529        -0.017539         0.544805
 C         2.830761        -0.062024        -0.746258
 C         2.562814         1.372575        -1.383374
 O         1.231646         0.955217        -1.865047
 C         1.209138         0.431304        -0.513618
 C         0.118182        -0.182303         0.187020
 H         0.714689         2.936493         1.350951
 H         1.674666         3.875114         0.347741
 H         0.398281         3.177547        -0.433928
 H         4.088942         1.975213         0.668012
 H         2.984962         1.463687         2.137248
 H         3.050977        -0.995932        -1.404751
 H         3.277138         1.962253        -2.025311
 H         0.423738        -0.645960         1.154848
 H        -0.707131         0.511369         0.360108
 H        -0.258633        -0.934851        -0.464551
