19
Iteration:   451
 C         1.268473         3.024442         0.197218
 C         1.944383         1.698821         0.092199
 C         2.958003         1.224519         1.119103
 O         3.725000         0.155419         0.314677
 C         2.789561        -0.087777        -0.754104
 C         2.521572         1.368294        -1.341657
 O         1.166025         0.966588        -1.808334
 C         1.277896         0.395902        -0.379949
 C         0.017185        -0.175468         0.214029
 H         0.760442         3.093757         1.143468
 H         1.996163         3.888989         0.089664
 H         0.452545         3.124639        -0.574401
 H         3.753021         1.888426         1.501276
 H         2.411118         0.685379         1.919921
 H         3.034116        -0.996799        -1.340248
 H         3.194878         2.010723        -1.977691
 H         0.307607        -0.962615         0.933180
 H        -0.506180         0.704773         0.710646
 H        -0.894968        -0.592023        -0.455933
