19
Iteration:  4541charge 0 multiplicity 1
 C         1.313223         3.145383         0.244711
 C         1.962536         1.744707         0.072187
 C         3.051067         1.309512         1.057278
 O         3.524969         0.057998         0.454545
 C         2.778852        -0.059587        -0.758708
 C         2.541004         1.366801        -1.373811
 O         1.209246         0.970710        -1.761664
 C         1.272323         0.438794        -0.390356
 C         0.066060        -0.370948         0.072265
 H         0.650321         3.098048         1.146195
 H         1.999827         3.902508         0.367782
 H         0.557947         3.239019        -0.598978
 H         3.860753         2.008267         1.263416
 H         2.333859         1.219750         1.954008
 H         2.930633        -1.034848        -1.242130
 H         3.115111         2.096229        -2.031313
 H         0.140788        -0.945107         1.074429
 H        -0.783728         0.332482         0.298887
 H        -0.286124        -1.090709        -0.582830
