19
Iteration:  1203
 C         1.186941         2.958060         0.249079
 C         1.976238         1.725467         0.033605
 C         3.100023         1.356578         0.994240
 O         3.473387         0.041143         0.481148
 C         2.688321        -0.042228        -0.714205
 C         2.579332         1.331690        -1.471750
 O         1.221901         0.973254        -1.906492
 C         1.258042         0.454503        -0.431695
 C         0.179798        -0.200530         0.356685
 H         0.444701         2.874528         1.029420
 H         1.808666         3.884200         0.533469
 H         0.629834         3.085761        -0.726527
 H         3.970707         1.985222         0.942761
 H         2.776751         1.437638         2.140194
 H         2.751430        -0.985274        -1.269707
 H         3.244355         1.999388        -2.162776
 H         0.557767        -0.492186         1.392151
 H        -0.735752         0.459086         0.473757
 H        -0.116086        -1.301356         0.072385
