19
Iteration:  3198charge 0 multiplicity 1
 C         1.235730         3.111263         0.210362
 C         2.038911         1.768169         0.011292
 C         3.065592         1.268316         1.034842
 O         3.608659         0.047512         0.446741
 C         2.760564        -0.031573        -0.679955
 C         2.539698         1.435694        -1.357651
 O         1.197807         0.829628        -1.822611
 C         1.284476         0.400110        -0.420753
 C        -0.016773        -0.206914         0.213564
 H         0.484788         2.878384         1.054534
 H         1.825985         4.023881         0.580190
 H         0.575964         3.358616        -0.604537
 H         3.863228         2.018520         1.237452
 H         2.596033         0.967518         1.937975
 H         3.003891        -0.867728        -1.365385
 H         3.140266         2.031898        -2.029194
 H         0.130344        -0.845788         1.051601
 H        -0.768707         0.553370         0.414082
 H        -0.563306        -0.917685        -0.586192
