19
Iteration:  2734
 C         1.275954         3.052255         0.239737
 C         2.042589         1.792815        -0.079315
 C         3.123604         1.438842         1.030502
 O         3.463238        -0.041668         0.569858
 C         2.766451        -0.072393        -0.696477
 C         2.494200         1.351958        -1.429704
 O         1.081168         1.037994        -1.839259
 C         1.282758         0.400196        -0.394287
 C         0.143053        -0.361519         0.219562
 H         0.740496         3.090492         1.172354
 H         1.933677         4.015535         0.373460
 H         0.382128         3.147260        -0.564856
 H         4.083819         2.030520         0.778092
 H         2.829361         1.401987         2.089800
 H         2.971333        -0.928390        -1.258143
 H         3.323217         1.826855        -2.015208
 H         0.314004        -0.573983         1.287011
 H        -0.830743         0.195041         0.091517
 H         0.074530        -1.193260        -0.503543
