19
Iteration:   502
 C         1.243500         3.014255         0.392835
 C         1.990557         1.770494         0.078938
 C         3.194901         1.421853         0.906978
 O         3.533988         0.092059         0.454417
 C         2.672373        -0.105569        -0.648534
 C         2.563682         1.261724        -1.375376
 O         1.193029         1.020767        -1.794165
 C         1.199965         0.421865        -0.476715
 C         0.037465        -0.291805         0.074090
 H         0.713976         2.856193         1.389693
 H         1.913094         3.941280         0.562180
 H         0.502932         3.152113        -0.354435
 H         4.083769         2.010083         0.676302
 H         2.961426         1.499671         2.064713
 H         2.886098        -1.132996        -1.243360
 H         3.275960         1.670253        -2.087430
 H         0.336295        -1.026466         0.938079
 H        -0.709982         0.351173         0.555920
 H        -0.345385        -0.855630        -0.675681
