19
Iteration:  3811charge 0 multiplicity 1
 C         1.371609         3.043658         0.277565
 C         2.028901         1.811437         0.017025
 C         3.112608         1.375327         0.964203
 O         3.446510        -0.002880         0.578242
 C         2.708780        -0.002556        -0.649537
 C         2.527061         1.362301        -1.473051
 O         1.125327         1.069960        -1.788225
 C         1.217386         0.446242        -0.432224
 C         0.120032        -0.450405         0.126550
 H         0.565868         2.809273         0.920918
 H         1.857645         4.034729         0.677350
 H         0.839530         3.275985        -0.639532
 H         4.079041         2.002675         0.835586
 H         2.938346         1.225988         2.070251
 H         2.775777        -0.941786        -1.171731
 H         3.237039         1.758084        -2.175354
 H         0.347180        -0.871352         1.170842
 H        -0.803654         0.146659         0.101150
 H         0.052869        -1.358861        -0.573310
