19
Iteration:   371charge 0 multiplicity 1
 C         1.292260         3.060152         0.328525
 C         1.984278         1.748273         0.054637
 C         3.230371         1.424973         0.956453
 O         3.420127         0.039393         0.542757
 C         2.615850        -0.060386        -0.700225
 C         2.526653         1.344956        -1.351280
 O         1.183952         1.043588        -1.886196
 C         1.242441         0.402579        -0.453328
 C         0.136049        -0.404279         0.121918
 H         0.592639         2.910298         1.214377
 H         1.993495         3.939011         0.619185
 H         0.724187         3.403926        -0.525448
 H         3.984560         2.141870         0.749658
 H         3.242412         1.241382         2.104716
 H         2.901857        -1.001244        -1.248269
 H         3.111632         1.783317        -2.120851
 H         0.295681        -0.449504         1.338766
 H        -0.835684         0.163725        -0.048352
 H         0.063860        -1.472822        -0.252634
