19
Iteration:  3528charge 0 multiplicity 1
 C         1.211407         3.010347         0.314446
 C         1.980448         1.654793         0.051896
 C         3.118947         1.373431         0.963458
 O         3.518584         0.103893         0.501447
 C         2.746686        -0.119909        -0.712747
 C         2.548819         1.327936        -1.382269
 O         1.197423         0.945824        -1.783893
 C         1.292410         0.409610        -0.443132
 C         0.036918        -0.145753         0.141563
 H         0.402074         2.790450         1.026380
 H         1.894713         3.815489         0.423004
 H         0.551124         3.331633        -0.537173
 H         3.998255         2.082731         0.654031
 H         3.095262         1.178205         2.104178
 H         2.983823        -0.938267        -1.418527
 H         3.222906         2.021906        -1.985036
 H         0.212007        -0.654517         1.079783
 H        -0.608118         0.685194         0.304783
 H        -0.354606        -1.055585        -0.508585
