19
Iteration:  4155
 C         1.372491         3.091535         0.191246
 C         2.029944         1.797075         0.006955
 C         2.968866         1.274146         1.168053
 O         3.612260         0.096044         0.410811
 C         2.729834        -0.052739        -0.683219
 C         2.447795         1.326053        -1.351474
 O         1.098758         1.001651        -1.850345
 C         1.290868         0.383553        -0.399164
 C         0.121343        -0.334690         0.146816
 H         0.831930         3.151566         1.198673
 H         2.105274         3.951696         0.232392
 H         0.698094         3.415571        -0.587541
 H         3.654189         2.097949         1.475084
 H         2.321713         0.908732         2.008268
 H         2.974347        -0.964596        -1.174187
 H         3.110403         2.044817        -1.973271
 H         0.332959        -0.771877         1.063766
 H        -0.805985         0.189894         0.220414
 H        -0.050254        -1.223961        -0.566984
