19
Iteration:  2617charge 0 multiplicity 1
 C         1.180367         2.970519         0.289359
 C         2.055862         1.840883        -0.017928
 C         3.279704         1.397410         0.998196
 O         3.477751         0.041002         0.499639
 C         2.645339        -0.039448        -0.695736
 C         2.515306         1.313887        -1.360425
 O         1.199862         0.904383        -1.884327
 C         1.249850         0.460744        -0.433552
 C         0.073479        -0.268546         0.206130
 H         0.495693         2.875271         1.220736
 H         1.796914         3.909711         0.519147
 H         0.494852         3.015339        -0.455241
 H         4.174151         2.078060         0.905393
 H         3.034573         1.510705         2.123289
 H         2.682686        -1.032819        -1.145373
 H         3.185624         1.829042        -2.011227
 H         0.406604        -0.868380         1.169470
 H        -0.747223         0.486010         0.408901
 H        -0.282872        -0.855665        -0.598858
