19
Iteration:  4259charge 0 multiplicity 1
 C         1.197937         2.989930         0.362163
 C         1.989320         1.788162         0.003511
 C         3.089199         1.344278         1.035024
 O         3.608024         0.057152         0.487087
 C         2.700061        -0.088009        -0.659271
 C         2.546262         1.297583        -1.456350
 O         1.216825         0.946841        -1.846112
 C         1.303505         0.530404        -0.448830
 C         0.035373        -0.205179         0.131434
 H         0.456251         2.628569         1.028399
 H         1.870900         3.717471         0.804528
 H         0.510888         3.271099        -0.472538
 H         3.962864         2.071814         1.193396
 H         2.630214         1.198264         2.088165
 H         2.915526        -1.131898        -1.009870
 H         2.929649         1.814963        -2.328475
 H         0.225998        -0.763605         1.146563
 H        -0.929114         0.379542         0.082791
 H        -0.021892        -0.951442        -0.585257
