19
Iteration:  4845
 C         1.325649         3.127416         0.218169
 C         2.021781         1.732171         0.010691
 C         3.053818         1.242387         1.101012
 O         3.593724         0.091806         0.453381
 C         2.778651        -0.008803        -0.722427
 C         2.486333         1.354690        -1.322216
 O         1.107114         0.890728        -1.729590
 C         1.291044         0.449199        -0.438463
 C         0.061499        -0.297352         0.034160
 H         0.653267         3.145491         1.121293
 H         2.041159         3.869793         0.454937
 H         0.741744         3.329051        -0.698434
 H         3.725507         2.118904         1.324965
 H         2.341030         1.013683         1.858585
 H         2.932700        -0.916221        -1.221665
 H         3.015768         2.177729        -2.013131
 H         0.217988        -0.567345         1.183858
 H        -0.879348         0.288776         0.054318
 H        -0.142313        -1.199720        -0.397812
