19
Iteration:  2635
 C         1.136059         3.073474         0.291944
 C         2.005361         1.776848         0.054170
 C         3.151696         1.344336         0.928489
 O         3.578170         0.022497         0.443801
 C         2.757490        -0.101581        -0.638317
 C         2.577198         1.286037        -1.451872
 O         1.185867         0.930905        -1.799219
 C         1.256983         0.476324        -0.370200
 C         0.025275        -0.198572         0.168798
 H         0.555936         2.888189         1.185704
 H         1.703812         4.010568         0.530980
 H         0.235237         3.201024        -0.472484
 H         4.000529         2.101006         0.984313
 H         2.892434         1.318623         1.983390
 H         3.085420        -0.935801        -1.213798
 H         3.246710         1.681216        -2.291340
 H         0.417396        -0.670919         1.069765
 H        -0.802789         0.526274         0.377425
 H        -0.394950        -1.078740        -0.446213
