19
Iteration:  1498charge 0 multiplicity 1
 C         1.146329         2.967342         0.236163
 C         2.026638         1.785602        -0.050108
 C         3.153659         1.407805         0.907430
 O         3.385385         0.008890         0.573590
 C         2.660878        -0.086750        -0.641070
 C         2.648281         1.273841        -1.415530
 O         1.205744         1.087385        -1.861800
 C         1.248647         0.474164        -0.438266
 C         0.180692        -0.297348         0.265542
 H         0.824270         2.991172         1.321108
 H         1.814148         3.913052         0.280641
 H         0.310609         2.996446        -0.422462
 H         4.095473         2.107205         0.713447
 H         2.880412         1.522042         1.935440
 H         2.738697        -1.112719        -1.082284
 H         3.305289         1.856318        -2.178414
 H         0.572865        -0.583559         1.323784
 H        -0.863215        -0.033660         0.311766
 H         0.158133        -1.307287        -0.145850
