19
Iteration:  1281
 C         1.397426         3.090440         0.239025
 C         1.938728         1.734147         0.118275
 C         3.038514         1.364403         1.039943
 O         3.692376         0.221058         0.385582
 C         2.772914        -0.074811        -0.687559
 C         2.539657         1.338479        -1.362525
 O         1.108332         0.849749        -1.808043
 C         1.206503         0.378664        -0.420443
 C        -0.035348        -0.322918         0.149157
 H         1.125352         3.337003         1.292903
 H         2.213414         3.765120        -0.191552
 H         0.605614         3.319892        -0.414613
 H         3.659555         2.147915         1.365036
 H         2.446381         0.950713         1.982269
 H         3.037954        -1.049397        -1.260900
 H         3.133160         1.812374        -2.164288
 H         0.039671        -0.334757         1.322554
 H        -0.945034         0.302244         0.033428
 H        -0.342716        -1.304191        -0.299417
