19
Iteration:  1474
 C         1.250735         3.083466         0.181673
 C         2.032781         1.805005         0.032621
 C         3.083452         1.316395         1.074599
 O         3.472521         0.005271         0.491335
 C         2.729912         0.012640        -0.729173
 C         2.488233         1.328134        -1.368702
 O         1.163633         0.909653        -1.836091
 C         1.265977         0.420237        -0.410339
 C         0.191195        -0.256492         0.209514
 H         1.079109         3.413166         1.150441
 H         1.747289         3.958486        -0.238599
 H         0.252401         2.843436        -0.314814
 H         4.004657         2.065613         1.183239
 H         2.646535         1.202833         2.025374
 H         2.943278        -0.927881        -1.335672
 H         3.135318         1.922812        -2.185619
 H         0.289953        -0.304134         1.317200
 H        -0.767932         0.189821        -0.086927
 H         0.063490        -1.337769        -0.061688
