19
Iteration:  4087charge 0 multiplicity 1
 C         1.156442         2.910085         0.314450
 C         2.090611         1.794989         0.016626
 C         3.131937         1.497842         1.039624
 O         3.430757         0.009770         0.460339
 C         2.733885        -0.086977        -0.716728
 C         2.566890         1.259841        -1.407169
 O         1.205718         0.992402        -1.798237
 C         1.300186         0.464504        -0.411205
 C         0.053518        -0.187562         0.125896
 H         0.677875         2.454139         1.161409
 H         1.699161         3.966218         0.622465
 H         0.296651         3.255752        -0.406158
 H         4.197598         1.837873         0.868781
 H         2.970280         1.285979         2.129387
 H         3.081006        -0.875259        -1.354582
 H         3.124782         1.686495        -2.231561
 H         0.445314        -0.557363         1.120129
 H        -0.948136         0.284823         0.284157
 H        -0.050460        -1.021983        -0.507960
