19
Iteration:  2053charge 0 multiplicity 1
 C         1.188296         3.037931         0.306841
 C         2.013139         1.793724        -0.032592
 C         3.157334         1.454465         0.937172
 O         3.438979        -0.004575         0.528393
 C         2.687030        -0.062941        -0.659783
 C         2.544171         1.362052        -1.420045
 O         1.239311         0.906306        -1.851628
 C         1.306782         0.454798        -0.425040
 C         0.107455        -0.281593         0.212577
 H         0.556265         2.818997         1.157388
 H         1.854652         3.903620         0.466714
 H         0.423094         3.394629        -0.523223
 H         4.097947         2.119625         0.871976
 H         2.734231         1.377692         1.961388
 H         2.786239        -1.061597        -1.158704
 H         3.238856         1.900335        -2.129476
 H         0.514072        -0.691782         1.255609
 H        -0.902353         0.085001         0.406964
 H        -0.123989        -1.195212        -0.350509
