19
Iteration:  4535charge 0 multiplicity 1
 C         1.284689         3.129559         0.280546
 C         2.040224         1.795383         0.089355
 C         3.023431         1.299945         1.055456
 O         3.490310         0.089632         0.465648
 C         2.723815        -0.075751        -0.745363
 C         2.518639         1.345470        -1.392253
 O         1.216560         0.981509        -1.766860
 C         1.258279         0.414460        -0.432402
 C         0.095022        -0.370340         0.078122
 H         0.697296         3.068553         1.182409
 H         2.144375         3.975972         0.286315
 H         0.612044         3.127341        -0.589792
 H         3.790254         2.077343         1.298119
 H         2.603336         1.200120         2.060856
 H         2.914729        -0.998805        -1.308539
 H         3.228955         1.793277        -2.064913
 H         0.419234        -0.721833         1.048054
 H        -0.807546         0.199168         0.292338
 H        -0.161062        -1.140829        -0.767048
