19
Iteration:  1156charge 0 multiplicity 1
 C         1.330550         3.016426         0.160179
 C         2.029872         1.730932         0.004630
 C         3.015328         1.209205         1.175655
 O         3.613800         0.185271         0.410464
 C         2.789635         0.058549        -0.735382
 C         2.438363         1.337747        -1.457891
 O         1.109465         0.829520        -1.802124
 C         1.285087         0.426249        -0.381171
 C         0.091830        -0.203348         0.262497
 H         0.921954         3.201541         1.172988
 H         2.036687         3.806114         0.027108
 H         0.485954         3.123955        -0.662762
 H         3.541508         2.120588         1.460514
 H         2.585632         0.759957         2.139090
 H         2.992463        -0.779286        -1.265438
 H         3.119621         1.834481        -2.200173
 H         0.100383        -0.999015         0.944316
 H        -0.542282         0.643970         0.663944
 H        -0.496293        -0.678842        -0.538800
