19
Iteration:  3317charge 0 multiplicity 1
 C         1.210810         3.002426         0.240780
 C         2.023557         1.731821         0.004539
 C         3.055074         1.348494         1.027005
 O         3.492745         0.085357         0.464176
 C         2.668293        -0.078100        -0.739636
 C         2.641963         1.282466        -1.421537
 O         1.175824         1.027633        -1.807909
 C         1.293638         0.437331        -0.414578
 C         0.107412        -0.258323         0.231112
 H         0.735224         2.901147         1.191103
 H         2.074217         3.778383         0.311993
 H         0.512520         3.266123        -0.442839
 H         3.812267         2.110053         1.327769
 H         2.412186         1.045631         1.892588
 H         2.962303        -1.016832        -1.201154
 H         3.223233         1.898400        -2.046419
 H         0.387447        -0.622006         1.221613
 H        -0.568021         0.586044         0.293230
 H        -0.176836        -1.165696        -0.366316
