19
Iteration:  4932
 C         1.189374         2.954476         0.248791
 C         2.079567         1.798064         0.019225
 C         3.066249         1.282494         1.069810
 O         3.493993         0.023079         0.507073
 C         2.704229        -0.025246        -0.797256
 C         2.573055         1.397154        -1.387284
 O         1.179628         0.957520        -1.790069
 C         1.269301         0.429515        -0.448052
 C         0.119923        -0.210177         0.187035
 H         0.600704         2.955335         1.177284
 H         1.712541         3.892852         0.229156
 H         0.386788         3.032630        -0.482675
 H         3.992016         1.904371         1.151347
 H         2.648806         1.256614         2.116169
 H         3.116331        -0.865675        -1.312039
 H         3.231518         1.870257        -2.240832
 H         0.513900        -0.728624         1.149519
 H        -0.682420         0.514543         0.374912
 H        -0.237167        -0.858107        -0.523386
