19
Iteration:  1012
 C         1.259509         2.997900         0.172798
 C         2.058433         1.804866         0.009375
 C         2.994650         1.175173         1.112401
 O         3.715352         0.140805         0.376560
 C         2.876094        -0.018577        -0.747654
 C         2.438744         1.360443        -1.488059
 O         1.084946         0.907107        -1.710368
 C         1.282510         0.410087        -0.386754
 C        -0.019042        -0.148979         0.263926
 H         0.644267         3.086413         1.162195
 H         1.907072         3.838944         0.323850
 H         0.658134         3.103451        -0.654176
 H         3.698312         1.865028         1.628615
 H         2.457485         0.540853         1.858227
 H         3.238845        -0.986749        -1.368876
 H         2.993902         1.732062        -2.274213
 H        -0.029847        -0.149074         1.417456
 H        -0.730307         0.550123        -0.171233
 H        -0.245334        -1.134725         0.002696
