19
Iteration:  1124
 C         1.281972         3.117998         0.214635
 C         1.978798         1.746823         0.001484
 C         3.143009         1.394250         0.929001
 O         3.633368         0.072604         0.454527
 C         2.707322        -0.058701        -0.624333
 C         2.497276         1.330109        -1.336616
 O         1.184666         0.947534        -1.741733
 C         1.207094         0.415868        -0.397340
 C         0.016860        -0.379961         0.147860
 H         0.871001         3.222115         1.223970
 H         1.943100         3.942742         0.001521
 H         0.371810         3.127240        -0.525380
 H         3.864457         2.161173         0.695635
 H         2.965520         1.214611         2.101296
 H         2.813501        -0.921975        -1.109983
 H         3.237928         1.940808        -1.957474
 H         0.307349        -1.203794         0.781996
 H        -0.700891         0.366311         0.722846
 H        -0.664879        -0.788969        -0.733628
