19
Iteration:    42
 C         1.406969         3.125182         0.178990
 C         1.912235         1.759798         0.083186
 C         2.941895         1.239861         1.097945
 O         3.736951         0.285830         0.368991
 C         2.879465        -0.016044        -0.603376
 C         2.447768         1.318001        -1.395648
 O         1.181867         0.781202        -1.849326
 C         1.108907         0.468309        -0.361311
 C        -0.017908        -0.336270         0.133722
 H         0.493603         3.287963         0.798993
 H         2.181876         3.675284         0.651997
 H         1.255723         3.542359        -0.918106
 H         3.609879         2.054783         1.576538
 H         2.434281         0.663922         1.849067
 H         3.180494        -0.947068        -1.202156
 H         2.978583         1.881216        -2.100471
 H         0.223260        -1.026985         1.075622
 H        -0.725948         0.328990         0.652225
 H        -0.399473        -1.054590        -0.486419
