19
Iteration:  1547charge 0 multiplicity 1
 C         1.257349         3.073982         0.221588
 C         1.973275         1.794205         0.013009
 C         3.034135         1.337831         1.010716
 O         3.627511         0.098778         0.453598
 C         2.808592        -0.031042        -0.699040
 C         2.483488         1.313608        -1.379463
 O         1.168793         0.791969        -1.816728
 C         1.312212         0.382683        -0.365672
 C         0.034950        -0.170411         0.205312
 H         0.315812         2.896894         0.862606
 H         1.837097         3.737479         0.841376
 H         0.964973         3.540187        -0.790320
 H         3.770453         2.068578         1.100231
 H         2.567632         1.166856         2.058442
 H         3.072436        -0.794363        -1.450883
 H         3.004113         1.878483        -2.101661
 H         0.154689        -0.912393         0.938577
 H        -0.581271         0.652863         0.629409
 H        -0.606143        -0.722769        -0.536904
