19
Iteration:    90charge 0 multiplicity 1
 C         1.175797         2.989692         0.191049
 C         2.062262         1.787197        -0.000459
 C         3.123124         1.398861         1.029300
 O         3.417670         0.002548         0.615268
 C         2.759831        -0.010613        -0.723133
 C         2.530038         1.350174        -1.445208
 O         1.124581         0.924357        -1.808795
 C         1.329129         0.468262        -0.415767
 C         0.184267        -0.268466         0.186770
 H         0.594306         2.844111         1.102870
 H         1.755352         3.954741         0.295188
 H         0.525318         3.068431        -0.607780
 H         3.974570         2.007965         0.974611
 H         2.798069         1.437704         2.029907
 H         2.902863        -0.860184        -1.359137
 H         3.169926         1.921967        -2.188114
 H         0.412940        -0.849041         0.973629
 H        -0.704467         0.273345         0.433863
 H         0.000088        -1.030981        -0.604984
