19
Iteration:  2409charge 0 multiplicity 1
 C         1.282523         3.071240         0.120831
 C         1.985995         1.748169         0.028845
 C         2.973179         1.275610         1.114898
 O         3.630064         0.091305         0.323285
 C         2.782048        -0.055676        -0.656392
 C         2.488127         1.360682        -1.409443
 O         1.191530         0.906686        -1.819086
 C         1.266229         0.450615        -0.391003
 C         0.060633        -0.235024         0.270997
 H         0.616949         3.202786         1.085173
 H         2.127683         3.929981         0.195265
 H         0.471896         3.127954        -0.533867
 H         3.842574         1.857330         1.411135
 H         2.439849         0.947860         2.082451
 H         2.993328        -0.997259        -1.164177
 H         3.208588         2.064587        -1.845437
 H         0.405213        -0.758160         1.224595
 H        -0.777271         0.380489         0.706261
 H        -0.452710        -0.930365        -0.365918
