19
Iteration:  1613charge 0 multiplicity 1
 C         1.222250         3.079013         0.106133
 C         2.027564         1.825130         0.003675
 C         3.105720         1.308833         1.026863
 O         3.494339         0.024685         0.543094
 C         2.751843        -0.031636        -0.646816
 C         2.537453         1.384997        -1.382634
 O         1.116710         0.912835        -1.790997
 C         1.281650         0.380640        -0.443444
 C         0.157457        -0.290352         0.175573
 H         0.974531         3.269941         1.220405
 H         1.911685         3.889340         0.055506
 H         0.198014         3.098462        -0.450485
 H         3.919731         1.985758         1.043181
 H         2.707616         1.295149         2.146709
 H         2.952377        -0.997653        -1.284835
 H         3.069968         1.991117        -2.052296
 H         0.581530        -0.765499         1.007707
 H        -0.582794         0.412569         0.604821
 H        -0.436372        -0.882762        -0.577698
