19
Iteration:   625charge 0 multiplicity 1
 C         1.284549         3.001531         0.337142
 C         2.021939         1.723370         0.088550
 C         3.227877         1.348579         1.011436
 O         3.563751         0.026345         0.462447
 C         2.778181        -0.057209        -0.706598
 C         2.418204         1.446301        -1.440403
 O         1.094032         0.869688        -1.788127
 C         1.275902         0.428223        -0.393427
 C         0.045677        -0.205821         0.074148
 H         0.724921         3.041067         1.251124
 H         2.032527         3.888943         0.340584
 H         0.534034         3.236152        -0.561984
 H         4.078547         1.978918         1.119119
 H         2.749661         1.290697         2.047415
 H         2.885342        -1.010571        -1.153177
 H         2.955894         2.184900        -2.119878
 H        -0.059628        -0.418088         1.102306
 H        -0.762787         0.553923        -0.039779
 H        -0.207405        -1.128799        -0.605081
