19
Iteration:  4757charge 0 multiplicity 1
 C         1.161001         3.034191         0.329605
 C         2.068924         1.754155         0.010134
 C         3.066032         1.363075         1.018258
 O         3.438188        -0.030616         0.538473
 C         2.787632        -0.053776        -0.635842
 C         2.562870         1.376890        -1.405452
 O         1.193516         0.970339        -1.907377
 C         1.283392         0.432104        -0.510487
 C         0.121021        -0.230745         0.185403
 H         0.755251         2.858313         1.385923
 H         1.608088         4.050284         0.403416
 H         0.387152         3.147562        -0.459293
 H         3.986811         2.020971         0.930082
 H         2.755759         1.185409         2.014128
 H         2.962124        -0.872933        -1.325971
 H         3.231014         1.898565        -2.200016
 H         0.491957        -0.813263         1.125221
 H        -0.636632         0.548140         0.446886
 H        -0.179104        -0.991209        -0.501109
