19
Iteration:  3599
 C         1.370088         3.113488         0.192726
 C         2.026683         1.708403         0.064252
 C         2.980726         1.232109         1.094106
 O         3.569953         0.076014         0.530911
 C         2.748944        -0.026628        -0.814223
 C         2.500471         1.386865        -1.324033
 O         1.132246         0.988269        -1.870902
 C         1.209719         0.397847        -0.509588
 C         0.119741        -0.288171         0.238716
 H         0.917875         3.097820         1.206938
 H         2.019248         4.019057        -0.018676
 H         0.473409         3.101151        -0.390009
 H         3.737600         2.070682         1.181038
 H         2.559055         1.035185         2.103040
 H         3.142616        -0.968267        -1.309328
 H         2.975219         1.987301        -2.102462
 H         0.418668        -0.748091         1.185924
 H        -0.741979         0.446060         0.397344
 H        -0.132216        -1.175219        -0.301718
