19
Iteration:   283charge 0 multiplicity 1
 C         1.168193         2.949706         0.267409
 C         1.981094         1.727111        -0.001731
 C         3.021588         1.339352         0.991040
 O         3.516485         0.051603         0.460669
 C         2.771234        -0.099964        -0.710978
 C         2.615792         1.339068        -1.386379
 O         1.249558         1.039986        -1.936353
 C         1.243468         0.425079        -0.426406
 C         0.115104        -0.172378         0.342748
 H         0.869978         2.869219         1.355440
 H         1.673522         3.926284         0.048606
 H         0.242011         2.898728        -0.319285
 H         3.668282         2.173155         1.138080
 H         2.625998         0.998606         2.022569
 H         2.877151        -0.906993        -1.322348
 H         3.303579         1.850153        -1.970122
 H         0.709379        -0.769095         1.221948
 H        -0.756892         0.491265         0.594743
 H        -0.381483        -0.909152        -0.257360
