19
Iteration:  2217charge 0 multiplicity 1
 C         1.205482         3.061997         0.198817
 C         2.057379         1.781614         0.039982
 C         3.108255         1.338455         0.949069
 O         3.421032         0.038121         0.592221
 C         2.756636        -0.040223        -0.723399
 C         2.539631         1.330484        -1.438677
 O         1.117513         0.959961        -1.830866
 C         1.332351         0.459208        -0.404214
 C         0.169718        -0.327539         0.196525
 H         0.733814         2.905908         1.206422
 H         1.902520         3.891419         0.356544
 H         0.240673         3.377046        -0.481982
 H         4.012645         2.016044         0.922180
 H         2.709916         1.458693         1.928431
 H         2.718492        -1.105613        -1.267105
 H         3.274508         1.858473        -2.154693
 H         0.652340        -0.691952         1.161292
 H        -0.551053         0.372303         0.495209
 H        -0.265683        -1.120111        -0.347052
