19
Iteration:  3739
 C         1.275307         2.975945         0.278139
 C         2.043578         1.752735         0.029720
 C         2.940835         1.228006         1.101989
 O         3.616755         0.099588         0.417917
 C         2.740733        -0.060373        -0.703054
 C         2.589340         1.281334        -1.423295
 O         1.124014         1.000246        -1.788916
 C         1.272886         0.445323        -0.453843
 C         0.102611        -0.157178         0.144740
 H         0.897161         3.028388         1.391339
 H         1.680631         3.913848         0.060901
 H         0.242264         2.926076        -0.314125
 H         3.605166         2.069869         1.219840
 H         2.374589         1.028463         2.024555
 H         2.996041        -1.039172        -1.265577
 H         3.222080         1.855008        -2.135479
 H         0.512895        -0.590672         1.087956
 H        -0.550481         0.711557         0.399970
 H        -0.329347        -0.909432        -0.411651
