19
Iteration:   619charge 0 multiplicity 1
 C         1.290779         3.046530         0.306854
 C         2.020568         1.731831         0.103570
 C         3.181259         1.272737         1.063211
 O         3.620288         0.068888         0.426276
 C         2.771575        -0.006553        -0.701430
 C         2.419938         1.352872        -1.452205
 O         1.099686         0.899187        -1.787657
 C         1.287572         0.425092        -0.385487
 C         0.015397        -0.205158         0.068265
 H         0.613264         3.177330         1.219374
 H         1.922123         3.881847         0.317766
 H         0.637040         3.115786        -0.523976
 H         4.102564         1.934596         1.154874
 H         2.717620         1.071700         2.079937
 H         2.844092        -1.003592        -1.257088
 H         2.799365         2.114457        -2.102911
 H        -0.050872        -0.401990         1.188176
 H        -0.759715         0.548994        -0.073720
 H        -0.104156        -1.159726        -0.435568
