19
Iteration:   106
 C         1.049083         2.945380         0.217659
 C         2.077629         1.856210        -0.039582
 C         3.202703         1.341879         0.948850
 O         3.352108        -0.033283         0.632862
 C         2.672200        -0.083227        -0.671697
 C         2.632246         1.410239        -1.397850
 O         1.178216         0.980196        -1.849817
 C         1.302232         0.538040        -0.456959
 C         0.234276        -0.281424         0.205809
 H         0.783741         2.866957         1.290781
 H         1.342184         3.951261         0.024177
 H         0.075034         2.674994        -0.393636
 H         4.189180         1.838467         0.629437
 H         2.974113         1.457528         2.115131
 H         2.996758        -1.097193        -1.107158
 H         3.174345         1.916815        -2.199423
 H         0.662123        -0.500315         1.329707
 H        -0.673906         0.394774         0.343480
 H         0.024151        -1.195707        -0.416073
