19
Iteration:  1032
 C         1.254356         3.081532         0.198335
 C         1.958571         1.725409        -0.008439
 C         2.949894         1.155836         1.078918
 O         3.720281         0.152712         0.339422
 C         2.801745        -0.029113        -0.765887
 C         2.525127         1.295311        -1.375389
 O         1.135840         0.887427        -1.807122
 C         1.239275         0.454516        -0.396220
 C         0.087901        -0.118390         0.332612
 H         0.487965         3.046864         1.124887
 H         1.945102         3.946303         0.356444
 H         0.649484         3.206042        -0.673821
 H         3.696240         1.871786         1.576946
 H         2.356710         0.691151         1.819575
 H         2.946399        -1.060197        -1.436973
 H         3.131264         2.030176        -1.836502
 H         0.280769        -0.141215         1.432037
 H        -0.847946         0.296083         0.108972
 H        -0.057413        -1.128871         0.054259
