19
Iteration:  4178charge 0 multiplicity 1
 C         1.265183         3.039599         0.175146
 C         1.991663         1.817854         0.109500
 C         2.980356         1.216384         1.130797
 O         3.587964         0.091809         0.417935
 C         2.732890        -0.033697        -0.714992
 C         2.647145         1.272729        -1.440732
 O         1.096468         1.020892        -1.762305
 C         1.267000         0.481405        -0.389370
 C         0.117110        -0.301679         0.129740
 H         0.961259         3.323717         1.259074
 H         1.873954         3.916583        -0.065738
 H         0.483616         3.108124        -0.550462
 H         3.692987         2.065454         1.341313
 H         2.416008         0.863628         2.037386
 H         2.961682        -0.977039        -1.250812
 H         3.150349         1.857175        -2.332477
 H         0.485415        -0.673916         1.022575
 H        -0.765974         0.225070         0.366162
 H        -0.143703        -1.238499        -0.498129
