19
Iteration:  1434
 C         1.394752         3.055235         0.196506
 C         1.979968         1.699953         0.097156
 C         2.946720         1.277517         1.122527
 O         3.688898         0.296209         0.368224
 C         2.763313        -0.007810        -0.692786
 C         2.454401         1.215452        -1.373946
 O         1.148030         0.872230        -1.853985
 C         1.261559         0.399540        -0.405231
 C        -0.045901        -0.240240         0.184532
 H         1.158139         3.392445         1.330594
 H         2.228496         3.876459        -0.116432
 H         0.579454         3.246855        -0.449171
 H         3.712041         1.912716         1.580863
 H         2.434668         0.715088         2.014699
 H         3.011206        -0.900065        -1.338718
 H         3.171736         1.662754        -2.046853
 H         0.224707        -0.426907         1.298466
 H        -0.825106         0.459593        -0.062302
 H        -0.062616        -1.245806        -0.171108
