19
Iteration:  3675
 C         1.243082         3.016021         0.299470
 C         2.024860         1.747117        -0.007447
 C         3.094430         1.409216         0.959333
 O         3.441128         0.012927         0.466665
 C         2.728210        -0.087323        -0.687365
 C         2.514559         1.302110        -1.369186
 O         1.192153         1.052025        -1.830635
 C         1.300526         0.440964        -0.354126
 C         0.102359        -0.295026         0.141855
 H         0.563870         2.752799         1.156858
 H         1.848695         3.764107         0.662288
 H         0.722706         3.317827        -0.589919
 H         4.068662         1.962456         0.724966
 H         3.123677         1.406480         2.082298
 H         3.032317        -1.086735        -1.203773
 H         3.285916         1.964453        -1.826192
 H         0.171945        -0.688043         1.170458
 H        -0.747235         0.451823         0.179690
 H        -0.222610        -1.099332        -0.507488
