19
Iteration:  1418
 C         1.353366         3.064963         0.273323
 C         1.977093         1.716103        -0.018794
 C         3.030216         1.297968         1.083941
 O         3.700303         0.245224         0.387825
 C         2.700779        -0.084339        -0.629829
 C         2.554905         1.298587        -1.368527
 O         1.110159         0.847737        -1.833970
 C         1.204370         0.428782        -0.408929
 C         0.022363        -0.247992         0.165517
 H         0.827367         3.000430         1.139778
 H         2.126303         3.787181         0.278938
 H         0.620253         3.374669        -0.590335
 H         3.681110         2.221516         1.328622
 H         2.557055         0.997290         1.962348
 H         2.954948        -1.042933        -1.055701
 H         3.299178         1.833460        -2.135057
 H         0.062258        -0.442526         1.190789
 H        -0.873517         0.425138         0.124727
 H        -0.254086        -1.149874        -0.450944
