19
Iteration:  1885charge 0 multiplicity 1
 C         1.217679         3.003093         0.232176
 C         2.003570         1.751348         0.070957
 C         3.116687         1.375678         0.992354
 O         3.643719         0.170442         0.413609
 C         2.754504        -0.081866        -0.646409
 C         2.548710         1.246227        -1.340719
 O         1.203280         0.934960        -1.825173
 C         1.149714         0.413547        -0.457647
 C        -0.001997        -0.250619         0.188313
 H         0.248624         2.979871         0.895852
 H         1.861650         3.821869         0.507489
 H         0.910125         3.298405        -0.717894
 H         4.000071         2.108550         1.204058
 H         2.670427         1.091862         1.928525
 H         3.005813        -1.123665        -1.159286
 H         3.238242         1.882533        -1.888103
 H         0.359346        -0.284584         1.195634
 H        -0.843166         0.470856         0.162807
 H        -0.384086        -1.240254        -0.197563
