19
Iteration:  2601charge 0 multiplicity 1
 C         1.227744         3.012225         0.291910
 C         2.037376         1.728390         0.043406
 C         3.127433         1.398853         0.891417
 O         3.434444         0.033229         0.545260
 C         2.712109        -0.055804        -0.639618
 C         2.524167         1.350782        -1.421301
 O         1.176025         0.953891        -1.802989
 C         1.293679         0.451408        -0.410925
 C         0.125887        -0.248875         0.166902
 H         0.707480         2.857562         1.187919
 H         1.799234         3.923950         0.295062
 H         0.570080         3.191362        -0.706677
 H         4.048114         1.968950         0.596097
 H         2.904916         1.293965         1.922633
 H         3.003289        -0.867415        -1.327393
 H         3.212041         1.836944        -2.212686
 H         0.486608        -0.752464         1.014111
 H        -0.647622         0.369375         0.622444
 H        -0.355134        -1.079030        -0.504888
