19
Iteration:  2107
 C         1.176996         3.008538         0.184939
 C         2.003317         1.723629        -0.014266
 C         3.022372         1.248962         0.993590
 O         3.630898         0.105724         0.425972
 C         2.764535        -0.005791        -0.669062
 C         2.571414         1.306076        -1.328224
 O         1.220950         0.946075        -1.874146
 C         1.254745         0.431416        -0.406762
 C         0.052763        -0.174926         0.295988
 H         0.695624         2.919383         1.164232
 H         1.568546         3.964813         0.303519
 H         0.292240         2.916551        -0.580072
 H         3.817989         2.058802         1.101430
 H         2.655547         1.019651         1.995302
 H         2.888899        -0.965262        -1.297559
 H         3.273287         1.904977        -1.966848
 H         0.116294        -0.297216         1.417362
 H        -0.770400         0.487987         0.263939
 H        -0.230447        -1.112562        -0.093336
