19
Iteration:  2809
 C         1.280832         2.961931         0.213005
 C         1.974441         1.761849         0.026085
 C         2.993806         1.315123         1.133306
 O         3.609339         0.138172         0.402093
 C         2.765412        -0.006198        -0.750056
 C         2.547678         1.256230        -1.393140
 O         1.084096         0.873299        -1.790585
 C         1.271085         0.442575        -0.382906
 C         0.133298        -0.160017         0.196687
 H         0.779312         2.945295         1.115918
 H         1.955929         3.810684         0.220338
 H         0.533846         3.207126        -0.672793
 H         3.780709         2.076279         1.380921
 H         2.465075         0.940444         2.014122
 H         3.219302        -0.884822        -1.279485
 H         3.187567         1.673016        -2.254462
 H         0.323551        -0.703409         1.092708
 H        -0.458501         0.719609         0.565169
 H        -0.399455        -0.647223        -0.664299
