19
Iteration:  1148
 C         1.313933         3.076443         0.174882
 C         1.987065         1.698725         0.040753
 C         3.063550         1.311421         1.153438
 O         3.612293         0.189118         0.396105
 C         2.786223         0.002328        -0.740692
 C         2.448642         1.280391        -1.398239
 O         1.105178         0.866993        -1.793702
 C         1.275755         0.349348        -0.395377
 C         0.060307        -0.201938         0.227204
 H         0.931639         3.343182         1.123439
 H         2.144116         3.807808        -0.029007
 H         0.472985         3.159309        -0.584186
 H         3.882802         1.967753         1.393976
 H         2.504974         0.861518         2.117877
 H         3.158220        -0.791904        -1.340478
 H         3.155958         1.913618        -2.073709
 H         0.260973        -1.118955         0.855040
 H        -0.637728         0.582037         0.713560
 H        -0.497830        -0.643248        -0.740103
