19
Iteration:  2731
 C         1.299626         3.067003         0.253041
 C         2.052795         1.794793        -0.061017
 C         3.115604         1.446384         1.050482
 O         3.475944        -0.037345         0.570171
 C         2.748621        -0.068055        -0.738803
 C         2.502120         1.345504        -1.434269
 O         1.079770         1.019502        -1.850759
 C         1.263405         0.431033        -0.397492
 C         0.131466        -0.350069         0.231230
 H         0.706184         3.056320         1.132452
 H         1.836100         3.946191         0.288936
 H         0.441443         3.037156        -0.549481
 H         4.037355         2.047874         0.907319
 H         2.841305         1.400753         2.124962
 H         3.086455        -1.078903        -1.295160
 H         3.337999         1.883258        -2.034552
 H         0.299856        -0.607879         1.217447
 H        -0.819133         0.110478         0.109602
 H         0.053171        -1.326176        -0.430201
