19
Iteration:  2281charge 0 multiplicity 1
 C         1.222519         3.027711         0.233543
 C         2.005379         1.740624         0.053494
 C         3.016972         1.236783         1.045677
 O         3.651900         0.156359         0.396999
 C         2.802020        -0.005295        -0.663103
 C         2.503891         1.278832        -1.392457
 O         1.160341         0.890354        -1.771174
 C         1.299757         0.422378        -0.408107
 C         0.021904        -0.146970         0.143920
 H         0.581872         3.036103         1.152268
 H         1.768601         3.862022         0.137740
 H         0.652190         3.028564        -0.724871
 H         3.799996         2.026938         1.127617
 H         2.660086         0.896751         1.987642
 H         2.892526        -1.133567        -1.132190
 H         3.046251         1.786649        -2.241073
 H         0.367313        -0.356035         1.235147
 H        -0.689883         0.671370         0.209103
 H        -0.456052        -1.033524        -0.102829
