19
Iteration:  1621charge 0 multiplicity 1
 C         1.212778         3.077009         0.157753
 C         2.005177         1.777040         0.020056
 C         3.132441         1.359365         1.032780
 O         3.383816        -0.008318         0.568817
 C         2.767665        -0.026175        -0.697448
 C         2.521657         1.395104        -1.433494
 O         1.175685         0.933641        -1.777154
 C         1.299021         0.406903        -0.460690
 C         0.162244        -0.280569         0.201757
 H         0.963680         3.189354         1.276349
 H         1.789487         3.989882        -0.219149
 H         0.354010         3.024497        -0.388899
 H         4.026370         2.000458         0.776477
 H         2.911569         1.416644         2.107245
 H         3.025788        -0.911238        -1.213184
 H         3.136856         1.846212        -2.168022
 H         0.580020        -0.909843         0.980207
 H        -0.679500         0.342834         0.555004
 H        -0.196872        -1.119046        -0.399002
