19
Iteration:  3033
 C         1.243139         2.997318         0.227892
 C         2.025881         1.746079        -0.006010
 C         3.129809         1.348253         1.009008
 O         3.505572         0.020582         0.562235
 C         2.743835        -0.019220        -0.677914
 C         2.545822         1.351905        -1.394699
 O         1.158558         0.931590        -1.806139
 C         1.212465         0.461149        -0.485278
 C         0.095779        -0.221023         0.225356
 H         0.551620         3.055301         1.070351
 H         1.903065         3.884477         0.355045
 H         0.638941         3.167874        -0.590982
 H         3.989693         2.103281         0.853307
 H         2.737609         1.374752         2.054535
 H         3.072968        -0.821280        -1.462794
 H         3.103329         1.797742        -2.227512
 H         0.583376        -0.807539         0.986550
 H        -0.809226         0.353186         0.328860
 H        -0.278498        -1.137345        -0.420954
