19
Iteration:  2603
 C         1.225295         2.993128         0.298106
 C         2.048431         1.731253         0.063020
 C         3.142907         1.399597         0.872297
 O         3.432722         0.036325         0.536909
 C         2.696277        -0.042569        -0.625660
 C         2.521518         1.362072        -1.418517
 O         1.181132         0.945171        -1.819554
 C         1.278039         0.451284        -0.401298
 C         0.131790        -0.248493         0.154058
 H         0.662543         2.828743         1.182433
 H         1.791151         3.981698         0.253419
 H         0.643028         3.157166        -0.661216
 H         4.120044         1.962931         0.616248
 H         2.826035         1.312888         1.926822
 H         2.992655        -0.814060        -1.262429
 H         3.236491         1.757300        -2.216934
 H         0.489458        -0.812894         1.070243
 H        -0.663142         0.434083         0.616380
 H        -0.373683        -1.086136        -0.483734
