19
Iteration:  1706
 C         1.298067         3.067237         0.200439
 C         2.002265         1.703591         0.035481
 C         2.963976         1.270145         1.071002
 O         3.736474         0.203345         0.412427
 C         2.877292        -0.031623        -0.718966
 C         2.456895         1.310953        -1.368775
 O         1.132858         0.807135        -1.765510
 C         1.278960         0.371428        -0.403788
 C        -0.077553        -0.158282         0.162218
 H         0.472856         3.194922         0.819078
 H         2.036095         3.865365         0.541022
 H         0.900793         3.302017        -0.757632
 H         3.701265         2.005144         1.466732
 H         2.461728         0.864880         1.865632
 H         3.116626        -0.920261        -1.150593
 H         3.030780         2.063311        -2.104914
 H         0.129001        -0.132052         1.273181
 H        -0.944135         0.472659         0.005637
 H        -0.323982        -1.109909        -0.223095
