19
Iteration:  3919charge 0 multiplicity 1
 C         1.189087         3.015195         0.277196
 C         2.067436         1.867939        -0.028243
 C         3.041157         1.269927         1.068811
 O         3.620645         0.054905         0.402072
 C         2.696639        -0.073481        -0.647094
 C         2.594984         1.350071        -1.350136
 O         1.194089         0.941756        -1.812782
 C         1.268040         0.444455        -0.435952
 C         0.024395        -0.238537         0.202238
 H         0.641416         2.826390         1.271376
 H         1.830578         3.982472         0.231958
 H         0.559316         2.948427        -0.581616
 H         3.922400         1.910319         1.204304
 H         2.479502         1.032662         2.002134
 H         2.832069        -0.825306        -1.414576
 H         3.143875         1.900795        -2.121382
 H         0.155842        -0.664623         1.167460
 H        -0.766003         0.462488         0.164785
 H        -0.326467        -0.965068        -0.576007
