19
Iteration:  3303
 C         1.251206         2.999262         0.253052
 C         2.066790         1.786708        -0.006648
 C         3.024936         1.321461         1.024193
 O         3.423223         0.027016         0.500639
 C         2.768911        -0.043668        -0.701753
 C         2.588448         1.339590        -1.430800
 O         1.184707         1.062428        -1.834415
 C         1.271762         0.460224        -0.452455
 C         0.109808        -0.315317         0.251028
 H         0.832539         3.013963         1.240305
 H         1.750704         3.993054         0.125779
 H         0.493180         2.993077        -0.577132
 H         3.995949         1.855593         0.951455
 H         2.777238         1.338776         2.179576
 H         2.925171        -1.059435        -1.314767
 H         3.347122         1.747627        -2.161984
 H         0.261625        -0.640184         1.383787
 H        -0.930317         0.188714         0.358824
 H        -0.082672        -1.255037        -0.268763
