19
Iteration:   642
 C         1.264110         2.993496         0.409760
 C         2.022497         1.795551        -0.010156
 C         3.171091         1.410120         0.857424
 O         3.446324         0.012356         0.533407
 C         2.718567        -0.059893        -0.665489
 C         2.511785         1.365826        -1.370596
 O         1.174278         0.944812        -1.790955
 C         1.302052         0.373109        -0.441156
 C         0.041445        -0.234699         0.099071
 H         0.832608         2.765723         1.436889
 H         1.864213         3.850762         0.542784
 H         0.481626         3.218698        -0.191527
 H         4.060257         1.993568         0.394912
 H         3.121814         1.508155         1.932751
 H         3.016085        -0.859595        -1.486936
 H         3.085636         1.910495        -2.093634
 H         0.223309        -0.749842         1.130542
 H        -0.735415         0.518736         0.268467
 H        -0.181197        -1.015898        -0.538911
