19
Iteration:  2382charge 0 multiplicity 1
 C         1.343669         3.116148         0.140079
 C         2.006463         1.744699         0.041338
 C         2.992680         1.313031         1.093037
 O         3.544091         0.073986         0.446074
 C         2.753818         0.008396        -0.706821
 C         2.509790         1.279545        -1.407646
 O         1.060493         0.957341        -1.782042
 C         1.284418         0.431347        -0.420604
 C         0.179584        -0.313630         0.209590
 H         0.764110         3.137915         1.014480
 H         2.005892         3.938550         0.114995
 H         0.462816         3.126423        -0.601561
 H         3.902544         1.982411         1.250151
 H         2.565350         1.089517         2.049889
 H         3.061420        -0.924617        -1.282563
 H         3.281615         1.810442        -1.979787
 H         0.463652        -0.747711         1.168783
 H        -0.567918         0.437127         0.441908
 H        -0.379519        -1.124086        -0.371666
