19
Iteration:  4769
 C         1.139592         2.996076         0.339470
 C         2.041726         1.827809        -0.005139
 C         3.126976         1.305210         1.089093
 O         3.416671         0.006947         0.602424
 C         2.692606        -0.106221        -0.821051
 C         2.541299         1.376151        -1.497264
 O         1.233146         0.949390        -1.862698
 C         1.350045         0.477869        -0.448366
 C         0.183572        -0.199605         0.163533
 H         0.552733         2.786262         1.334147
 H         1.704944         3.914543         0.340061
 H         0.228667         2.944865        -0.393886
 H         4.084196         1.935663         1.203031
 H         2.607198         1.413367         2.014900
 H         3.006974        -1.058482        -1.135047
 H         3.162608         1.977934        -2.319328
 H         0.423387        -0.771935         1.198521
 H        -0.702687         0.463843         0.383102
 H        -0.290319        -0.854567        -0.488836
