19
Iteration:  3114
 C         1.277579         3.090500         0.204558
 C         1.979937         1.775852         0.038090
 C         3.013022         1.303131         0.965710
 O         3.531055         0.001792         0.468175
 C         2.773124        -0.011495        -0.677585
 C         2.523198         1.368569        -1.327011
 O         1.159207         0.900046        -1.796663
 C         1.286825         0.446377        -0.411994
 C         0.126282        -0.291677         0.167235
 H         1.002188         3.199469         1.267285
 H         1.978753         3.818790         0.028859
 H         0.472750         3.326537        -0.538427
 H         3.784045         2.063416         1.033735
 H         2.579105         1.133089         2.016207
 H         2.805873        -0.807204        -1.299105
 H         3.107551         2.029498        -1.991085
 H         0.282896        -0.380771         1.226790
 H        -0.704878         0.414647         0.152912
 H        -0.030471        -1.228187        -0.330796
