19
Iteration:  3608
 C         1.380563         3.091727         0.175667
 C         1.988908         1.745472         0.055485
 C         2.959315         1.250826         1.122437
 O         3.533334         0.098871         0.422921
 C         2.805022         0.007446        -0.762046
 C         2.532760         1.381465        -1.318093
 O         1.146044         0.964248        -1.851145
 C         1.254235         0.399456        -0.483939
 C         0.031293        -0.363677         0.245727
 H         1.078448         3.278361         1.223610
 H         2.099129         3.777176         0.091766
 H         0.627579         3.377604        -0.600140
 H         3.876845         1.886591         1.372735
 H         2.568991         0.936564         2.146233
 H         3.100405        -0.839903        -1.410636
 H         3.036363         2.001031        -2.043450
 H         0.540903        -0.558167         1.238315
 H        -0.804665         0.346999         0.451244
 H        -0.341294        -1.188680        -0.228590
