19
Iteration:  1698
 C         1.298682         3.050626         0.187526
 C         2.024509         1.734077         0.014268
 C         2.977895         1.300200         1.076130
 O         3.673824         0.178160         0.403060
 C         2.781264        -0.028845        -0.660591
 C         2.456897         1.358523        -1.397196
 O         1.176754         0.809155        -1.739204
 C         1.303888         0.343939        -0.426079
 C        -0.003719        -0.176148         0.164526
 H         0.498877         2.999312         1.045747
 H         2.111562         3.757468         0.414282
 H         0.858413         3.406887        -0.666966
 H         3.758657         2.046373         1.463134
 H         2.432357         0.901916         1.964877
 H         3.136295        -0.944773        -1.279006
 H         2.790917         2.025710        -2.186893
 H        -0.008320        -0.142339         1.271212
 H        -0.812445         0.555428        -0.164376
 H        -0.358426        -1.215160        -0.169128
