19
Iteration:   539
 C         1.269453         3.064119         0.361267
 C         2.041377         1.806186        -0.031442
 C         3.089359         1.280526         0.910842
 O         3.364237        -0.058389         0.497109
 C         2.681582        -0.070625        -0.712952
 C         2.489352         1.489717        -1.380724
 O         1.199177         0.960120        -1.819563
 C         1.323812         0.474920        -0.445635
 C         0.239502        -0.284512         0.239477
 H         0.709633         2.751427         1.227550
 H         1.756840         4.063339         0.489982
 H         0.417115         3.257105        -0.444294
 H         4.046417         1.747020         0.916852
 H         2.661342         1.398986         1.983866
 H         2.892639        -0.905625        -1.254054
 H         3.094673         1.941641        -2.206226
 H         0.591383        -0.433141         1.204611
 H        -0.730543         0.199902         0.004938
 H         0.011149        -1.391915        -0.236117
