19
Iteration:  3342
 C         1.228916         3.062628         0.280848
 C         2.007473         1.756533         0.077832
 C         3.056253         1.219649         1.082239
 O         3.630511         0.063182         0.417583
 C         2.794266        -0.026577        -0.654882
 C         2.541291         1.375573        -1.435387
 O         1.158589         0.827286        -1.891084
 C         1.223296         0.493121        -0.438419
 C         0.008549        -0.166911         0.234080
 H         0.391207         3.047625         1.058863
 H         1.955677         3.848058         0.385852
 H         0.777781         3.274000        -0.760923
 H         3.837395         1.981841         1.270912
 H         2.568497         0.972214         1.976221
 H         3.212600        -0.798912        -1.227333
 H         3.115506         2.058939        -2.114028
 H         0.177603        -0.753703         1.086438
 H        -0.569768         0.695100         0.474352
 H        -0.328562        -0.965748        -0.514099
