19
Iteration:   632charge 0 multiplicity 1
 C         1.272529         2.987251         0.350462
 C         2.034228         1.750067         0.027426
 C         3.203827         1.402929         0.947836
 O         3.508380        -0.003386         0.499864
 C         2.742605        -0.079499        -0.694270
 C         2.442450         1.490064        -1.382702
 O         1.111177         0.873826        -1.783019
 C         1.307714         0.419390        -0.410842
 C         0.035787        -0.215574         0.082102
 H         0.820608         2.864347         1.351958
 H         2.007025         3.760387         0.407088
 H         0.591850         3.238659        -0.346254
 H         4.107175         2.127041         0.860747
 H         2.957349         1.346126         1.959046
 H         3.066321        -1.073978        -1.301128
 H         3.037502         2.013009        -2.109919
 H         0.130757        -0.630465         1.161715
 H        -0.760536         0.491338        -0.115170
 H        -0.263004        -0.943072        -0.556688
