19
Iteration:  4024charge 0 multiplicity 1
 C         1.325641         3.078176         0.203162
 C         1.955313         1.731190         0.062823
 C         2.946305         1.190140         1.091176
 O         3.589532         0.152149         0.389272
 C         2.791097        -0.056662        -0.717728
 C         2.527782         1.410507        -1.374876
 O         1.174392         0.956384        -1.813469
 C         1.317015         0.348847        -0.440420
 C         0.018930        -0.232439         0.231572
 H         0.927732         3.136625         1.242867
 H         2.077379         3.778096         0.000355
 H         0.513146         3.108788        -0.496166
 H         3.705942         1.955806         1.419910
 H         2.464063         0.997204         2.064822
 H         3.128065        -0.813648        -1.340029
 H         3.247041         1.893414        -2.143478
 H         0.267914        -0.671820         1.177660
 H        -0.714060         0.577385         0.392288
 H        -0.342283        -1.153266        -0.384985
