19
Iteration:  3107
 C         1.344459         3.084893         0.219126
 C         1.934689         1.763495         0.025597
 C         3.010976         1.373406         0.982989
 O         3.565255         0.010424         0.463130
 C         2.748257        -0.021547        -0.693172
 C         2.460720         1.378759        -1.323495
 O         1.192438         0.928809        -1.796413
 C         1.262466         0.363096        -0.396281
 C         0.106102        -0.276957         0.166550
 H         0.904679         3.245117         1.186425
 H         2.130220         3.954250         0.027990
 H         0.480469         3.203012        -0.525420
 H         3.850021         2.033546         1.170998
 H         2.494800         1.103351         1.877558
 H         3.038889        -0.809677        -1.488214
 H         3.243933         1.830228        -1.957854
 H         0.285188        -0.522917         1.279532
 H        -0.808458         0.378679         0.042395
 H        -0.074137        -1.247881        -0.236790
