19
Iteration:   557
 C         1.247286         3.079198         0.286513
 C         1.992090         1.778380         0.058420
 C         3.010985         1.243649         1.108224
 O         3.456820        -0.050608         0.438207
 C         2.786253         0.028588        -0.828050
 C         2.551303         1.375170        -1.431977
 O         1.089482         0.964531        -1.827390
 C         1.323246         0.425621        -0.487280
 C         0.227936        -0.234545         0.277112
 H         0.688350         3.140285         1.236768
 H         2.090022         3.851459         0.276804
 H         0.633339         3.314480        -0.566433
 H         3.960857         1.811363         1.374920
 H         2.477189         1.014638         2.110211
 H         2.987102        -0.896286        -1.563587
 H         3.028830         2.079842        -2.121796
 H         0.404583        -0.136522         1.431076
 H        -0.734718         0.251432         0.042753
 H         0.131178        -1.229639         0.023604
