19
Iteration:  3075charge 0 multiplicity 1
 C         1.381409         3.090563         0.222549
 C         1.931302         1.746895         0.041361
 C         3.021671         1.303308         1.014591
 O         3.668101         0.133592         0.420987
 C         2.746199         0.009598        -0.619665
 C         2.512869         1.275048        -1.379225
 O         1.120999         0.886870        -1.770123
 C         1.187229         0.512736        -0.396538
 C         0.058414        -0.320009         0.090516
 H         0.760288         3.101848         1.097305
 H         2.217622         3.897999         0.356439
 H         0.707686         3.303386        -0.629864
 H         3.791083         2.053828         1.305605
 H         2.605366         0.928157         1.930099
 H         2.887962        -1.025315        -1.127702
 H         3.241659         1.761177        -2.050929
 H         0.287954        -0.479605         1.204507
 H        -0.921957         0.227281        -0.021578
 H        -0.190069        -1.330308        -0.343536
