19
Iteration:  4549
 C         1.294438         3.086614         0.201484
 C         1.949100         1.731248         0.030191
 C         3.020443         1.309002         1.056799
 O         3.584508         0.022145         0.456372
 C         2.813080         0.015915        -0.689853
 C         2.554617         1.397800        -1.324403
 O         1.155851         0.958107        -1.801784
 C         1.288590         0.414135        -0.381251
 C         0.016112        -0.339824         0.114582
 H         0.690637         3.202637         1.133040
 H         1.982956         3.900052         0.332127
 H         0.760277         3.520325        -0.585845
 H         3.947823         1.916359         1.179184
 H         2.579002         0.906475         2.036772
 H         3.027577        -0.958629        -1.321625
 H         2.958410         2.199035        -1.962441
 H         0.124652        -0.990660         0.940502
 H        -0.716810         0.453790         0.187024
 H        -0.352537        -1.033964        -0.682185
