19
Iteration:   221charge 0 multiplicity 1
 C         1.309730         3.130368         0.180475
 C         1.918675         1.731152         0.083140
 C         3.167203         1.404122         0.994051
 O         3.481892         0.083357         0.507845
 C         2.699373        -0.035733        -0.672604
 C         2.513574         1.359787        -1.355902
 O         1.164877         0.978900        -1.808861
 C         1.260523         0.378574        -0.437157
 C         0.114355        -0.434981         0.154408
 H         0.429404         3.111811         0.821615
 H         2.068765         3.801134         0.736633
 H         1.007198         3.569813        -0.731491
 H         4.022137         2.200409         0.932256
 H         2.882743         1.206937         1.998800
 H         2.985257        -1.027218        -1.231145
 H         3.227191         1.837049        -2.123606
 H         0.421701        -0.828805         1.057642
 H        -0.792467         0.189116         0.334414
 H        -0.325041        -1.274134        -0.514780
