19
Iteration:  1478
 C         1.240452         3.052712         0.181052
 C         2.041280         1.790016         0.054446
 C         3.098535         1.341053         1.066144
 O         3.430618         0.028694         0.493804
 C         2.704752        -0.032373        -0.726852
 C         2.500960         1.340721        -1.420498
 O         1.191805         0.930136        -1.836462
 C         1.265675         0.460066        -0.426146
 C         0.185581        -0.294155         0.224473
 H         1.013436         3.408450         1.313795
 H         1.705598         4.054167        -0.252100
 H         0.342377         2.820521        -0.314914
 H         3.997544         1.991298         1.100749
 H         2.775726         1.190069         2.155961
 H         2.951839        -0.955840        -1.243350
 H         3.123655         1.829026        -2.136804
 H         0.357824        -0.324893         1.354455
 H        -0.705617         0.263693        -0.085403
 H         0.109853        -1.335186        -0.024999
