19
Iteration:  3495charge 0 multiplicity 1
 C         1.277946         3.099956         0.255232
 C         2.041688         1.796014         0.014101
 C         3.054456         1.198277         1.087069
 O         3.644233         0.133541         0.449872
 C         2.736952        -0.097076        -0.682639
 C         2.512151         1.344984        -1.454906
 O         1.150827         0.879296        -1.845699
 C         1.255636         0.457521        -0.324144
 C         0.038635        -0.215229         0.136274
 H         0.528728         3.088747         1.101417
 H         1.911405         3.893004         0.560755
 H         0.693104         3.294094        -0.698551
 H         3.860241         2.016528         1.341776
 H         2.557491         0.875938         2.103718
 H         2.904645        -0.944059        -1.401444
 H         2.962112         2.120351        -2.179065
 H         0.277694        -0.498135         1.142392
 H        -0.917919         0.252934         0.249916
 H        -0.418398        -1.138449        -0.443404
