19
Iteration:   943charge 0 multiplicity 1
 C         1.283973         3.018288         0.395235
 C         2.091506         1.801327        -0.037900
 C         3.259362         1.423974         0.881457
 O         3.297655         0.040629         0.586925
 C         2.650008         0.002048        -0.649337
 C         2.475742         1.337481        -1.446048
 O         1.131969         0.928847        -1.802574
 C         1.277232         0.393114        -0.442860
 C         0.205911        -0.324174         0.147516
 H         0.827036         3.042423         1.401812
 H         1.785959         4.030104         0.396449
 H         0.456792         3.099489        -0.375846
 H         4.323068         1.816338         0.611077
 H         2.965023         1.646099         1.865933
 H         2.872383        -0.988387        -1.275474
 H         3.152288         1.879589        -2.163618
 H         0.554832        -0.975075         0.877855
 H        -0.580218         0.346668         0.412212
 H        -0.085209        -1.053665        -0.653209
