19
Iteration:  1144
 C         1.319462         3.094700         0.175606
 C         1.961590         1.712692         0.081413
 C         3.056118         1.343274         1.106608
 O         3.625524         0.178707         0.393311
 C         2.787832        -0.049703        -0.729961
 C         2.477024         1.290686        -1.371868
 O         1.105927         0.884499        -1.790786
 C         1.277165         0.334340        -0.394257
 C         0.031833        -0.230707         0.194924
 H         0.887011         3.330898         1.192255
 H         2.073576         3.804142        -0.101178
 H         0.482555         3.226317        -0.579409
 H         3.988231         1.891032         1.361788
 H         2.540691         1.012579         2.020465
 H         3.183947        -0.860086        -1.333720
 H         3.048530         1.898433        -2.053280
 H         0.340953        -1.005483         0.851036
 H        -0.596454         0.487871         0.729100
 H        -0.503493        -0.561768        -0.658490
