19
Iteration:  2875
 C         1.261895         2.979827         0.239900
 C         2.081968         1.755919         0.013217
 C         3.146959         1.430823         1.016396
 O         3.419510         0.005395         0.534021
 C         2.715707        -0.105215        -0.604887
 C         2.439387         1.371098        -1.461679
 O         1.181299         1.006783        -1.859049
 C         1.262514         0.511410        -0.442102
 C         0.188981        -0.333384         0.204747
 H         0.745071         2.990249         1.102239
 H         1.798474         3.934354         0.217598
 H         0.483501         2.922872        -0.626516
 H         4.065249         2.010862         0.873504
 H         2.795343         1.286181         2.012541
 H         2.903436        -1.044744        -1.202603
 H         3.071595         2.005857        -2.155828
 H         0.281060        -0.436742         1.305686
 H        -0.784131         0.242929         0.174654
 H        -0.061325        -1.250593        -0.268331
