19
Iteration:   538
 C         1.267211         3.054784         0.366401
 C         2.036113         1.807120        -0.028941
 C         3.102432         1.292093         0.907884
 O         3.366232        -0.058057         0.501032
 C         2.674692        -0.067965        -0.706178
 C         2.486620         1.481869        -1.385792
 O         1.205230         0.966689        -1.829289
 C         1.317832         0.477153        -0.443626
 C         0.234638        -0.289154         0.235579
 H         0.708517         2.742546         1.237637
 H         1.777842         4.080560         0.495341
 H         0.422819         3.245508        -0.442676
 H         4.074970         1.721189         0.913728
 H         2.657791         1.443127         2.011352
 H         2.882284        -0.954774        -1.278050
 H         3.096959         1.931125        -2.212499
 H         0.596595        -0.463765         1.232542
 H        -0.742103         0.190395         0.022575
 H         0.024750        -1.363909        -0.254253
