19
Iteration:  3239charge 0 multiplicity 1
 C         1.328034         3.027762         0.253990
 C         2.052800         1.791093        -0.008285
 C         3.068218         1.343471         1.087943
 O         3.592783         0.138862         0.462676
 C         2.709381        -0.081353        -0.624435
 C         2.557969         1.340621        -1.353842
 O         1.072490         0.987898        -1.854828
 C         1.246918         0.365452        -0.479846
 C         0.017509        -0.316078         0.134597
 H         0.843319         3.061412         1.178589
 H         2.177302         3.828462         0.299140
 H         0.674094         3.256874        -0.545730
 H         3.911465         2.020884         1.328739
 H         2.616618         1.117908         2.100372
 H         2.991299        -1.195099        -0.956702
 H         3.146931         1.806199        -2.156640
 H         0.410272        -0.590451         1.134893
 H        -0.902456         0.278530         0.111873
 H        -0.204625        -1.079874        -0.526736
