19
Iteration:  3745
 C         1.286023         3.029160         0.247539
 C         2.026186         1.690683         0.051633
 C         2.968978         1.239264         1.145758
 O         3.603169         0.109608         0.379720
 C         2.770342        -0.038047        -0.649167
 C         2.566536         1.260822        -1.412349
 O         1.112676         1.019723        -1.851712
 C         1.286045         0.420880        -0.480085
 C         0.090554        -0.153124         0.173695
 H         1.038670         3.006564         1.261010
 H         1.728865         4.100767         0.196053
 H         0.437851         2.842808        -0.330452
 H         3.673752         2.058106         1.486932
 H         2.427409         0.912536         2.062282
 H         3.003973        -0.905136        -1.163081
 H         3.003747         1.891043        -2.176933
 H         0.409344        -0.699105         1.089189
 H        -0.683934         0.553720         0.465605
 H        -0.343062        -1.043094        -0.452686
