19
Iteration:  4604charge 0 multiplicity 1
 C         1.166859         2.952070         0.325537
 C         2.076238         1.770637         0.000876
 C         3.041172         1.298710         0.983741
 O         3.592071         0.036082         0.549888
 C         2.714602        -0.036978        -0.726495
 C         2.567274         1.307915        -1.375462
 O         1.211700         0.999171        -1.865163
 C         1.242941         0.474593        -0.421191
 C         0.077792        -0.192872         0.139256
 H         0.525737         2.707782         1.241862
 H         1.558919         4.008340         0.455977
 H         0.393673         3.073170        -0.418814
 H         3.893091         1.887514         1.357837
 H         2.521406         1.153485         1.905089
 H         2.885506        -0.957730        -1.433116
 H         3.206366         1.722233        -2.203164
 H         0.522878        -0.537798         1.068577
 H        -0.699208         0.528868         0.399976
 H        -0.223071        -0.857141        -0.627416
