19
Iteration:  4403
 C         1.217278         3.014690         0.262072
 C         1.963032         1.680487         0.051649
 C         3.086536         1.306269         1.060111
 O         3.581104         0.058737         0.497850
 C         2.795183        -0.014273        -0.748438
 C         2.589551         1.397384        -1.391384
 O         1.178539         0.933168        -1.881024
 C         1.314333         0.409330        -0.349551
 C        -0.045212        -0.215146         0.133473
 H         0.545968         2.930652         1.083791
 H         1.996079         3.738325         0.734449
 H         0.513209         3.406474        -0.496095
 H         4.006250         2.003277         1.023501
 H         2.555857         1.192435         2.098246
 H         2.916328        -0.889525        -1.282961
 H         3.106960         2.097635        -2.024928
 H         0.272608        -0.781024         1.019880
 H        -0.719732         0.640262         0.242940
 H        -0.310781        -0.977298        -0.666605
