19
Iteration:   732charge 0 multiplicity 1
 C         1.330213         3.050187         0.106535
 C         1.953930         1.665218         0.133035
 C         2.972348         1.125376         1.095405
 O         3.705140         0.166313         0.315700
 C         2.740119        -0.004305        -0.757659
 C         2.547882         1.399570        -1.293750
 O         1.115136         0.993198        -1.796323
 C         1.222235         0.443948        -0.382115
 C         0.025090        -0.241562         0.274153
 H         0.659986         3.331832         0.878739
 H         2.204096         3.722827         0.113945
 H         0.852554         3.062271        -0.882383
 H         3.786410         1.848672         1.504215
 H         2.498920         0.613358         1.889684
 H         2.988063        -0.872532        -1.413856
 H         3.062329         2.150851        -1.953129
 H         0.462771        -0.803875         1.108454
 H        -0.807677         0.450394         0.529523
 H        -0.251360        -1.131137        -0.374973
