19
Iteration:  3636
 C         1.373284         3.153317         0.205184
 C         1.983301         1.813580         0.078215
 C         2.974455         1.204623         1.092624
 O         3.609256         0.104759         0.409156
 C         2.730749        -0.089286        -0.702098
 C         2.480807         1.321369        -1.310319
 O         1.111661         0.924431        -1.846794
 C         1.279410         0.482209        -0.376808
 C         0.124232        -0.329505         0.144377
 H         0.700982         3.188871         1.065492
 H         2.142407         4.078874         0.521664
 H         0.826480         3.504620        -0.711009
 H         3.742076         1.945429         1.175118
 H         2.557804         0.920947         2.051795
 H         2.747918        -0.940883        -1.340915
 H         2.975616         1.900490        -2.122554
 H         0.373941        -0.603264         1.162214
 H        -0.811708         0.206843         0.109921
 H        -0.062366        -1.165218        -0.664376
