19
Iteration:  1392
 C         1.165703         3.085570         0.279070
 C         2.003063         1.796399         0.004925
 C         3.199191         1.417862         0.977264
 O         3.481741         0.005344         0.508672
 C         2.741894        -0.052187        -0.711600
 C         2.522450         1.335912        -1.431880
 O         1.163703         0.849178        -1.821991
 C         1.317511         0.432944        -0.351949
 C         0.070510        -0.240867         0.177792
 H         0.322779         2.873105         1.032079
 H         1.814927         3.930113         0.566388
 H         0.833846         3.450689        -0.602168
 H         4.003297         2.045824         0.888574
 H         2.895841         1.397038         2.104405
 H         3.170660        -0.901351        -1.299459
 H         3.127703         1.647496        -2.197102
 H         0.222886        -0.755996         1.201959
 H        -0.720864         0.545013         0.340284
 H        -0.162719        -1.036161        -0.526095
