19
Iteration:  1610
 C         1.218409         3.077083         0.102541
 C         2.034704         1.821280        -0.002619
 C         3.078475         1.309844         1.026288
 O         3.543845         0.042098         0.531067
 C         2.735331        -0.049853        -0.647803
 C         2.536521         1.366057        -1.350094
 O         1.102041         0.906559        -1.804922
 C         1.287770         0.399657        -0.438122
 C         0.142267        -0.304951         0.169389
 H         0.901931         3.252126         1.225343
 H         1.952138         3.941976         0.016409
 H         0.376182         3.157284        -0.444758
 H         3.974369         1.982178         1.184406
 H         2.638322         1.188104         2.047869
 H         2.930057        -0.898707        -1.224035
 H         3.019876         2.029172        -2.004391
 H         0.525293        -0.782688         1.059034
 H        -0.516152         0.483452         0.615325
 H        -0.457393        -0.786316        -0.591304
