19
Iteration:    88charge 0 multiplicity 1
 C         1.190731         2.996338         0.196785
 C         2.050420         1.784030        -0.001235
 C         3.119141         1.403798         1.031285
 O         3.422766         0.010532         0.598932
 C         2.769493        -0.002475        -0.715250
 C         2.517286         1.339085        -1.444376
 O         1.133212         0.925939        -1.802062
 C         1.326996         0.457502        -0.419451
 C         0.176342        -0.280750         0.174135
 H         0.551712         2.875163         1.097064
 H         1.795437         3.927039         0.311547
 H         0.559717         3.091213        -0.660705
 H         4.016630         2.033032         0.995559
 H         2.720818         1.391318         1.997806
 H         2.883209        -0.838669        -1.309398
 H         3.125893         1.878299        -2.129398
 H         0.411128        -0.874907         1.022830
 H        -0.672490         0.332342         0.461371
 H        -0.013688        -0.989151        -0.576334
