19
Iteration:   115charge 0 multiplicity 1
 C         1.019389         2.935046         0.261031
 C         2.055614         1.822622        -0.017838
 C         3.232226         1.390009         0.896917
 O         3.317902        -0.047063         0.575664
 C         2.708250        -0.041306        -0.600956
 C         2.573381         1.329715        -1.396396
 O         1.263073         1.031129        -1.855775
 C         1.303442         0.468936        -0.502522
 C         0.240712        -0.231553         0.226448
 H         0.785503         3.035471         1.311700
 H         1.280680         3.903908        -0.133080
 H         0.077516         2.639469        -0.328816
 H         4.179753         1.881415         0.809283
 H         2.946780         1.494435         2.033186
 H         2.663750        -1.024929        -1.255788
 H         3.344122         1.919289        -2.039365
 H         0.600263        -0.493828         1.290440
 H        -0.727578         0.304938         0.377750
 H         0.038081        -1.303313        -0.166764
