19
Iteration:  1998charge 0 multiplicity 1
 C         1.362847         3.132120         0.133612
 C         2.032920         1.801055         0.058487
 C         3.012317         1.232530         1.112085
 O         3.568347         0.160276         0.438394
 C         2.787557        -0.022079        -0.709358
 C         2.434575         1.372042        -1.376508
 O         1.096536         0.870640        -1.725506
 C         1.345564         0.407032        -0.389632
 C         0.060580        -0.348966         0.140559
 H         0.729987         3.356564         1.020974
 H         2.060645         3.928329        -0.161619
 H         0.695198         3.034393        -0.876107
 H         3.757213         2.063890         1.429376
 H         2.431613         0.990221         2.038671
 H         3.230552        -0.782026        -1.275428
 H         3.008172         1.825804        -2.193341
 H         0.146904        -1.026370         1.149167
 H        -0.725213         0.437443         0.297659
 H        -0.326383        -1.026601        -0.641809
