19
Iteration:   997charge 0 multiplicity 1
 C         1.258622         2.999942         0.226277
 C         2.042422         1.679087         0.083244
 C         3.089959         1.282442         1.103825
 O         3.636392         0.161431         0.353264
 C         2.738800        -0.019424        -0.753480
 C         2.512351         1.294681        -1.398833
 O         1.084807         0.900910        -1.760508
 C         1.307078         0.380638        -0.369847
 C         0.032491        -0.132612         0.168958
 H         0.662809         2.981176         1.178605
 H         1.922460         3.940214         0.179271
 H         0.481311         3.123564        -0.619517
 H         3.957480         1.969944         1.379624
 H         2.588713         1.077213         2.024060
 H         2.941040        -1.002187        -1.358818
 H         2.973888         2.005674        -2.177150
 H         0.078869        -0.109617         1.224631
 H        -0.730342         0.599251        -0.100752
 H        -0.110415        -1.222137        -0.118645
