19
Iteration:  1972charge 0 multiplicity 1
 C         1.250002         3.100243         0.135598
 C         1.940115         1.755820         0.015073
 C         2.996336         1.308277         1.105880
 O         3.621816         0.073727         0.414321
 C         2.734547        -0.081490        -0.660412
 C         2.517946         1.327360        -1.338386
 O         1.198118         0.938487        -1.819346
 C         1.263057         0.490934        -0.447844
 C         0.107580        -0.322504         0.218612
 H         1.033014         3.291071         1.249713
 H         1.912129         3.916116        -0.101994
 H         0.380022         3.105588        -0.464112
 H         3.738013         2.146753         1.209346
 H         2.588955         1.074787         2.067366
 H         2.928941        -1.023949        -1.256395
 H         3.121845         1.960362        -1.988803
 H         0.443040        -0.672915         1.109455
 H        -0.616019         0.409758         0.490728
 H        -0.280122        -1.167533        -0.362404
