19
Iteration:  2937charge 0 multiplicity 1
 C         1.356470         3.065289         0.200106
 C         1.952752         1.747905         0.020701
 C         3.070056         1.270736         1.003622
 O         3.670093         0.161978         0.439387
 C         2.766932        -0.019166        -0.618862
 C         2.530213         1.320177        -1.341568
 O         1.131286         0.891466        -1.826747
 C         1.175881         0.432581        -0.470729
 C        -0.028300        -0.285566         0.217835
 H         0.678588         3.094491         1.221070
 H         2.149461         3.798521         0.309403
 H         0.674483         3.394237        -0.637581
 H         3.745780         2.113236         1.237308
 H         2.672514         1.050685         2.066385
 H         3.112927        -0.945248        -1.310785
 H         3.204218         2.022725        -1.941625
 H         0.253367        -0.619188         1.191853
 H        -0.887462         0.354606         0.076026
 H        -0.231370        -1.322181        -0.332006
