19
Iteration:   586
 C         1.320567         3.024248         0.198307
 C         1.994069         1.715441         0.029051
 C         2.938410         1.147557         1.043149
 O         3.694472         0.194936         0.290176
 C         2.690989        -0.056525        -0.722435
 C         2.591924         1.309231        -1.307373
 O         1.164940         1.063007        -1.782839
 C         1.238182         0.444566        -0.423765
 C         0.026778        -0.251452         0.296189
 H         0.709158         3.094674         1.141576
 H         2.052595         3.754666         0.138054
 H         0.704916         3.180816        -0.654795
 H         3.700955         1.748210         1.583114
 H         2.428321         0.639723         1.847776
 H         2.760535        -1.017124        -1.272560
 H         3.052899         2.132857        -1.791494
 H         0.321006        -0.229267         1.356112
 H        -0.937508         0.097962        -0.053864
 H        -0.066488        -1.336732         0.041960
