19
Iteration:  2069charge 0 multiplicity 1
 C         1.145474         2.973067         0.300536
 C         2.011282         1.825853        -0.034164
 C         3.092808         1.322209         0.926553
 O         3.429468         0.016750         0.605170
 C         2.775068        -0.038396        -0.677229
 C         2.569376         1.329973        -1.444956
 O         1.134948         0.904075        -1.856635
 C         1.300831         0.479632        -0.447509
 C         0.196134        -0.207044         0.247591
 H         0.648237         2.666094         1.287462
 H         1.824613         3.938019         0.462614
 H         0.497380         3.178915        -0.471717
 H         3.966878         1.888793         0.737471
 H         2.864029         1.497226         1.996241
 H         3.153766        -0.838075        -1.320359
 H         3.174935         1.862125        -2.208427
 H         0.402679        -0.487071         1.257478
 H        -0.555371         0.635114         0.080293
 H        -0.024465        -1.121345        -0.426533
