19
Iteration:   298charge 0 multiplicity 1
 C         1.192153         2.965062         0.244960
 C         1.928060         1.673872         0.013482
 C         2.952697         1.217790         1.066473
 O         3.666611         0.113686         0.413466
 C         2.789035         0.011908        -0.737046
 C         2.547257         1.357414        -1.349727
 O         1.223022         0.927422        -1.847662
 C         1.272046         0.418878        -0.482729
 C         0.031503        -0.129962         0.280434
 H         1.067257         3.197971         1.277444
 H         1.932426         3.756708        -0.088891
 H         0.294600         3.130866        -0.313378
 H         3.867958         1.915005         1.277704
 H         2.461306         1.001613         1.967437
 H         3.177746        -0.942097        -1.307714
 H         3.233760         2.002411        -1.993996
 H         0.286068        -0.468757         1.195071
 H        -0.531692         0.738347         0.545333
 H        -0.492143        -0.991888        -0.230364
