19
Iteration:   415
 C         1.199646         3.031447         0.274644
 C         2.063736         1.781472         0.049643
 C         3.023487         1.299388         1.105810
 O         3.435406        -0.028865         0.470333
 C         2.717923        -0.007518        -0.777861
 C         2.524121         1.327079        -1.452556
 O         1.179687         1.005289        -1.870046
 C         1.307817         0.476622        -0.518901
 C         0.240253        -0.255470         0.257383
 H         0.676714         2.951240         1.282895
 H         1.774350         4.063174         0.329243
 H         0.471639         3.114137        -0.498740
 H         3.940563         1.758864         1.224794
 H         2.568363         1.283138         2.194451
 H         2.735372        -1.052953        -1.310328
 H         3.104994         1.991154        -2.060541
 H         0.721014        -0.676404         1.275337
 H        -0.481544         0.442409         0.731749
 H        -0.196498        -1.152931        -0.223573
