19
Iteration:  3272charge 0 multiplicity 1
 C         1.212892         3.121051         0.248382
 C         1.948436         1.787878         0.053170
 C         3.117033         1.297185         1.022832
 O         3.406222        -0.022216         0.477279
 C         2.728815        -0.045553        -0.667331
 C         2.575050         1.448013        -1.338033
 O         1.162569         0.912665        -1.851685
 C         1.305797         0.451810        -0.434714
 C         0.182862        -0.287352         0.173076
 H         0.786914         3.356608         1.169043
 H         2.058052         3.849016        -0.088375
 H         0.491424         3.183483        -0.507688
 H         4.096676         1.740077         0.753447
 H         3.017470         1.228410         2.155159
 H         2.739147        -1.080476        -1.261078
 H         3.248832         1.959008        -2.039442
 H         0.240252        -0.653252         1.238447
 H        -0.737268         0.305066         0.010198
 H         0.181088        -1.231468        -0.306757
