19
Iteration:  2134charge 0 multiplicity 1
 C         1.211999         3.044592         0.154671
 C         2.018383         1.749469         0.076464
 C         3.017330         1.255859         1.106694
 O         3.672293         0.165325         0.389358
 C         2.749674        -0.033692        -0.652200
 C         2.522193         1.286705        -1.413863
 O         1.138210         0.895119        -1.772156
 C         1.286268         0.421464        -0.433018
 C         0.070309        -0.218088         0.188987
 H         0.736132         3.357594         1.106218
 H         2.014376         3.929214         0.169787
 H         0.578900         3.098932        -0.636579
 H         3.843197         1.902789         1.335126
 H         2.520013         0.911696         2.103335
 H         3.078660        -0.806647        -1.245740
 H         2.937351         1.894429        -2.202553
 H        -0.007154        -0.512714         1.242901
 H        -0.851686         0.558810         0.152349
 H        -0.243590        -1.197714        -0.415407
