19
Iteration:  4666charge 0 multiplicity 1
 C         1.242263         3.068169         0.237957
 C         1.969406         1.781747         0.087698
 C         3.095186         1.270442         1.096959
 O         3.545116         0.076038         0.519262
 C         2.671949        -0.043497        -0.734364
 C         2.571697         1.355850        -1.362669
 O         1.210709         1.013762        -1.849274
 C         1.220707         0.403003        -0.507300
 C         0.097386        -0.302063         0.154014
 H         0.831794         3.020012         1.219187
 H         2.085292         3.861937         0.199093
 H         0.653734         3.231775        -0.612529
 H         3.837703         2.114247         1.097264
 H         2.738999         0.986393         2.095954
 H         2.877421        -0.903015        -1.426891
 H         3.093154         1.896341        -2.082246
 H         0.375092        -0.627358         1.103606
 H        -0.885804         0.169765         0.114009
 H        -0.043142        -1.405504        -0.275266
