19
Iteration:  2947
 C         1.315627         3.131760         0.211988
 C         1.995588         1.730872         0.048510
 C         3.004244         1.348914         1.094696
 O         3.600881         0.165306         0.392761
 C         2.798430        -0.026871        -0.727253
 C         2.570636         1.234878        -1.394956
 O         1.142282         0.919316        -1.791508
 C         1.251980         0.325681        -0.420910
 C         0.001853        -0.258003         0.204974
 H         0.706722         3.106203         1.285696
 H         2.070239         3.946368         0.322402
 H         0.599303         3.294920        -0.612065
 H         3.870614         2.067195         1.244889
 H         2.536574         0.848797         2.012094
 H         3.137511        -1.024270        -1.280788
 H         3.065074         1.980103        -2.058168
 H         0.189673        -0.525916         1.256793
 H        -0.815266         0.481427         0.226432
 H        -0.426519        -1.194908        -0.407336
