19
Iteration:  1508charge 0 multiplicity 1
 C         1.173813         2.987548         0.270970
 C         2.047289         1.777454        -0.072033
 C         3.135041         1.465077         0.881870
 O         3.429357        -0.030793         0.612206
 C         2.664256        -0.082898        -0.663150
 C         2.527877         1.258023        -1.349095
 O         1.211066         1.053596        -1.875033
 C         1.214497         0.521501        -0.444047
 C         0.199545        -0.323159         0.251532
 H         0.623118         2.581921         1.091194
 H         1.591206         4.019347         0.368944
 H         0.442462         3.179455        -0.515765
 H         4.176212         1.984697         0.633262
 H         2.915604         1.542127         1.892189
 H         2.960593        -1.018064        -1.247216
 H         3.475279         1.627564        -1.992503
 H         0.662264        -0.480042         1.304340
 H        -0.622195         0.368828         0.329864
 H         0.054703        -1.230670        -0.351703
