19
Iteration:  1428
 C         1.402966         3.032409         0.217381
 C         1.965299         1.721991         0.070305
 C         2.984051         1.296125         1.126498
 O         3.703488         0.302500         0.373457
 C         2.720822        -0.072873        -0.658328
 C         2.503195         1.278330        -1.387984
 O         1.107933         0.855514        -1.872156
 C         1.226209         0.415132        -0.392142
 C        -0.007312        -0.235227         0.184581
 H         1.092579         3.214693         1.172210
 H         2.181670         3.669588         0.136414
 H         0.537197         3.262822        -0.486862
 H         3.753216         1.983905         1.557784
 H         2.488108         0.811548         1.943188
 H         3.054768        -0.853300        -1.273498
 H         3.406218         1.606692        -2.027779
 H         0.149391        -0.434329         1.190055
 H        -0.909883         0.415994        -0.043230
 H        -0.197286        -1.250837        -0.298888
