19
Iteration:  2121
 C         1.168898         3.062738         0.195379
 C         1.951348         1.746954         0.090418
 C         3.025918         1.300222         1.105114
 O         3.680940         0.110872         0.370940
 C         2.850003        -0.093057        -0.751696
 C         2.536023         1.265374        -1.392202
 O         1.192535         0.906618        -1.800227
 C         1.212993         0.490903        -0.365873
 C         0.026982        -0.164477         0.220565
 H         0.600559         3.063675         1.082093
 H         1.850097         3.944936        -0.088560
 H         0.443807         3.117428        -0.672794
 H         3.751378         2.100709         1.427972
 H         2.517310         0.789235         2.021781
 H         2.939854        -1.091086        -1.275473
 H         3.292690         1.784952        -2.100461
 H         0.517427        -0.358212         1.254782
 H        -0.938323         0.446248         0.113670
 H        -0.128979        -1.199273        -0.297076
