19
Iteration:  1942charge 0 multiplicity 1
 C         1.175702         2.980674         0.263454
 C         2.016225         1.808480        -0.019078
 C         3.134376         1.432030         1.049450
 O         3.403164         0.018403         0.537546
 C         2.719753        -0.066286        -0.706349
 C         2.577403         1.330042        -1.450435
 O         1.221614         0.940657        -1.909012
 C         1.278194         0.442150        -0.467698
 C         0.147314        -0.286114         0.262379
 H         0.947255         2.874811         1.406491
 H         1.710509         3.867014         0.258233
 H         0.162745         2.986581        -0.316604
 H         4.037905         2.164576         0.911258
 H         2.841744         1.424739         2.100975
 H         2.905944        -0.948928        -1.251225
 H         3.220106         1.864503        -2.064610
 H         0.508311        -0.453370         1.395849
 H        -0.615506         0.534388         0.362990
 H        -0.223954        -1.173330        -0.229697
