19
Iteration:  2408
 C         1.280681         3.067100         0.121641
 C         1.987037         1.749373         0.028930
 C         2.966388         1.277521         1.112490
 O         3.633678         0.094798         0.329260
 C         2.774879        -0.069241        -0.664039
 C         2.483755         1.370711        -1.410272
 O         1.195302         0.907237        -1.815056
 C         1.268045         0.451685        -0.392550
 C         0.065408        -0.232180         0.279310
 H         0.633256         3.216560         1.062653
 H         2.163117         3.906720         0.182547
 H         0.469934         3.139151        -0.549694
 H         3.843990         1.824787         1.411696
 H         2.463036         0.937253         2.067697
 H         2.973947        -0.960068        -1.136061
 H         3.202922         2.063923        -1.850448
 H         0.396168        -0.765702         1.178644
 H        -0.792617         0.371658         0.700170
 H        -0.445468        -0.965542        -0.392130
