19
Iteration:  3765
 C         1.290523         3.074588         0.222316
 C         1.982171         1.772718         0.043734
 C         3.015626         1.168740         1.097831
 O         3.627571         0.099784         0.422437
 C         2.722836        -0.019172        -0.766671
 C         2.519934         1.385846        -1.365344
 O         1.205233         0.944889        -1.843560
 C         1.228989         0.429376        -0.382137
 C         0.023479        -0.297657         0.203399
 H         0.867886         3.388761         1.179398
 H         2.194152         3.849225         0.218171
 H         0.637570         3.295417        -0.569826
 H         3.756624         2.050656         1.352900
 H         2.354052         1.073709         2.061579
 H         2.976901        -0.865515        -1.362534
 H         3.245117         1.958497        -2.023997
 H         0.370599        -0.739250         1.111525
 H        -0.681759         0.497803         0.425265
 H        -0.365537        -1.219471        -0.477281
