19
Iteration:  1993
 C         1.322878         3.129258         0.106085
 C         2.024153         1.805644         0.094097
 C         3.047447         1.246155         1.138344
 O         3.568528         0.163108         0.449127
 C         2.773090         0.015246        -0.725912
 C         2.480651         1.366562        -1.397532
 O         1.070172         0.860705        -1.752047
 C         1.319881         0.345976        -0.402674
 C         0.054901        -0.317445         0.164220
 H         0.837603         3.499312         1.045243
 H         2.085592         3.918448        -0.059141
 H         0.691995         3.012993        -0.697720
 H         3.801041         1.927610         1.540639
 H         2.432614         0.921153         1.984661
 H         3.174976        -0.847479        -1.356096
 H         3.157078         1.760427        -2.177890
 H         0.244398        -0.879322         0.983950
 H        -0.719941         0.399285         0.359466
 H        -0.121872        -1.008490        -0.672618
