19
Iteration:  3837
 C         1.223969         3.073517         0.320186
 C         1.984560         1.807695         0.033919
 C         3.164990         1.339504         0.990564
 O         3.453396         0.046073         0.509227
 C         2.621833        -0.044077        -0.676123
 C         2.573400         1.287777        -1.421274
 O         1.183707         0.985010        -1.821251
 C         1.266330         0.430231        -0.419481
 C         0.166819        -0.308878         0.095602
 H         0.613608         3.005039         1.274426
 H         1.789310         3.926247         0.506736
 H         0.492518         3.344829        -0.534753
 H         4.083451         1.878606         0.972701
 H         2.986730         1.154378         2.017498
 H         2.680789        -0.954291        -1.366688
 H         3.376613         1.764652        -1.999588
 H         0.516867        -0.619628         1.125480
 H        -0.737521         0.347603         0.167842
 H         0.057902        -1.191867        -0.434274
