19
Iteration:  1306charge 0 multiplicity 1
 C         1.346690         3.146570         0.161135
 C         1.966377         1.747894         0.017724
 C         2.933840         1.211420         1.097400
 O         3.633558         0.140932         0.425899
 C         2.837344        -0.002175        -0.727988
 C         2.486646         1.377790        -1.404739
 O         1.082212         0.809008        -1.815822
 C         1.302738         0.402296        -0.356670
 C         0.110639        -0.245225         0.221671
 H         1.045160         3.266886         1.218454
 H         2.050109         3.891863        -0.116621
 H         0.475037         3.293523        -0.415614
 H         3.566888         2.010436         1.534553
 H         2.347291         0.764103         1.938823
 H         3.092008        -0.938370        -1.328946
 H         3.008561         1.919802        -2.109155
 H         0.234016        -0.558904         1.269188
 H        -0.604215         0.602405         0.351665
 H        -0.393229        -0.937324        -0.391005
