19
Iteration:  2659charge 0 multiplicity 1
 C         1.288525         2.953048         0.200870
 C         2.030195         1.677187         0.046985
 C         3.047880         1.340735         1.074444
 O         3.593700         0.149758         0.409432
 C         2.724249        -0.079990        -0.724208
 C         2.509647         1.357776        -1.382601
 O         1.109859         0.892447        -1.834282
 C         1.315854         0.391480        -0.370967
 C         0.069206        -0.135884         0.192091
 H         0.769533         2.893985         1.180976
 H         2.045530         3.813838         0.398430
 H         0.477950         3.172576        -0.499329
 H         3.816721         2.132514         1.325559
 H         2.648705         1.133290         2.098267
 H         2.971224        -0.906874        -1.326008
 H         3.066861         2.032462        -2.028107
 H         0.225792        -0.548848         1.286212
 H        -0.698157         0.711206         0.113839
 H        -0.324002        -0.984944        -0.378689
