19
Iteration:  4116
 C         1.270504         3.126636         0.316253
 C         1.949613         1.738536         0.069490
 C         3.099365         1.399254         0.968740
 O         3.506791        -0.001826         0.503004
 C         2.707559        -0.083540        -0.637510
 C         2.468457         1.398436        -1.343375
 O         1.198000         0.945694        -1.955242
 C         1.279132         0.417375        -0.385870
 C         0.131805        -0.320722         0.127418
 H         0.536233         2.913220         1.089265
 H         2.077768         3.753319         0.649351
 H         0.680617         3.497183        -0.526316
 H         4.063327         1.809110         0.874265
 H         2.974411         1.289994         2.029995
 H         2.939112        -0.955996        -1.376192
 H         3.049827         2.029630        -1.988207
 H         0.436181        -0.585857         1.217270
 H        -0.699350         0.406313         0.181241
 H        -0.134710        -1.191854        -0.480591
