19
Iteration:  2486charge 0 multiplicity 1
 C         1.175186         3.044907         0.312334
 C         1.979852         1.828643         0.056398
 C         3.213378         1.409270         0.919375
 O         3.514362         0.011018         0.500846
 C         2.676086        -0.118467        -0.646382
 C         2.500445         1.304780        -1.386652
 O         1.226619         0.937692        -1.857648
 C         1.271284         0.447681        -0.470399
 C         0.114099        -0.268194         0.178623
 H         0.748095         2.889552         1.391561
 H         1.695066         4.106099         0.477853
 H         0.527135         3.240107        -0.506075
 H         4.058721         2.038439         0.663814
 H         3.051564         1.198085         2.011514
 H         2.665384        -1.075189        -1.208970
 H         3.058039         1.970695        -2.057593
 H         0.214898        -0.321914         1.336589
 H        -0.816783         0.353494         0.127028
 H        -0.137890        -1.185205        -0.271066
