19
Iteration:  2410
 C         1.285508         3.076501         0.123327
 C         1.984993         1.747029         0.029183
 C         2.980235         1.272928         1.117057
 O         3.626878         0.088478         0.320021
 C         2.787582        -0.041652        -0.651106
 C         2.493726         1.349846        -1.406944
 O         1.187198         0.906340        -1.823309
 C         1.263840         0.448901        -0.389401
 C         0.056090        -0.237556         0.264089
 H         0.615323         3.185154         1.099761
 H         2.070831         3.939143         0.201738
 H         0.466421         3.122549        -0.539903
 H         3.841450         1.896489         1.409474
 H         2.422520         0.958250         2.084734
 H         3.010183        -1.035312        -1.198942
 H         3.210694         2.062665        -1.851476
 H         0.413973        -0.749066         1.259478
 H        -0.753996         0.393299         0.705630
 H        -0.459737        -0.902146        -0.345230
