19
Iteration:   548
 C         1.249370         3.088216         0.310703
 C         2.059329         1.828414         0.000829
 C         3.024551         1.234033         0.975024
 O         3.375503        -0.065702         0.471542
 C         2.748132        -0.034583        -0.762735
 C         2.535355         1.468305        -1.406391
 O         1.133047         0.929982        -1.777027
 C         1.332393         0.432086        -0.477191
 C         0.253027        -0.259365         0.230485
 H         0.725338         2.965850         1.265612
 H         1.914853         4.030898         0.498878
 H         0.465951         3.303285        -0.508945
 H         3.837486         1.954771         1.004375
 H         2.612223         0.975416         2.068405
 H         2.974905        -0.904662        -1.430474
 H         3.096390         2.157097        -2.104711
 H         0.405170        -0.214822         1.338437
 H        -0.673999         0.347467         0.153591
 H         0.156239        -1.353665        -0.031972
