19
Iteration:   775charge 0 multiplicity 1
 C         1.328207         3.019838         0.369259
 C         2.034409         1.764453        -0.015339
 C         3.148538         1.349473         1.006681
 O         3.491839         0.020838         0.512648
 C         2.744263        -0.058619        -0.689779
 C         2.437842         1.386556        -1.462236
 O         1.079301         0.932004        -1.777432
 C         1.283882         0.482518        -0.435342
 C         0.128263        -0.279441         0.107364
 H         0.826590         2.973322         1.375390
 H         2.038388         3.878116         0.387650
 H         0.552574         3.281505        -0.358415
 H         4.017374         2.129436         0.850889
 H         2.823502         1.362348         2.065823
 H         2.873477        -1.018969        -1.214111
 H         3.152347         1.888517        -2.168413
 H         0.105065        -0.434352         1.184276
 H        -0.781322         0.192415        -0.309896
 H         0.065979        -1.296290        -0.323872
