19
Iteration:  3051
 C         1.258078         3.145724         0.229091
 C         2.074794         1.868984         0.055163
 C         3.086361         1.335305         1.055764
 O         3.509303         0.087320         0.437222
 C         2.718794        -0.069654        -0.705089
 C         2.496230         1.298882        -1.429621
 O         1.154454         0.871025        -1.809555
 C         1.342421         0.397151        -0.349771
 C         0.075883        -0.314943         0.146653
 H         0.628665         3.007423         1.095651
 H         1.951440         4.036550         0.482958
 H         0.551793         3.407972        -0.679762
 H         3.959575         1.892970         1.273930
 H         2.688777         1.058358         2.014258
 H         2.844212        -1.003880        -1.155806
 H         3.147922         1.869252        -2.107500
 H         0.098308        -0.779306         1.218340
 H        -0.754009         0.494748         0.055338
 H        -0.283164        -1.075718        -0.449705
