19
Iteration:  3875charge 0 multiplicity 1
 C         1.230568         2.985820         0.246910
 C         1.950840         1.700535         0.011537
 C         3.036745         1.215201         1.060042
 O         3.596907         0.114174         0.407255
 C         2.797267         0.023310        -0.730423
 C         2.518087         1.385137        -1.323466
 O         1.201750         0.931196        -1.805051
 C         1.319996         0.336408        -0.469551
 C         0.034729        -0.123141         0.201859
 H         0.918764         2.838990         1.263198
 H         1.980332         3.831030         0.021624
 H         0.355303         3.095930        -0.319980
 H         3.685000         2.056891         1.342477
 H         2.383640         0.900890         1.925807
 H         3.099799        -0.846449        -1.238482
 H         3.274730         1.796097        -2.004136
 H         0.177510        -0.411531         1.209285
 H        -0.532600         0.782597         0.268956
 H        -0.692144        -0.870897        -0.253920
