19
Iteration:  4649
 C         1.245018         3.020884         0.306203
 C         1.981916         1.719496         0.029690
 C         3.045790         1.349591         0.988750
 O         3.459806        -0.053564         0.490894
 C         2.791789        -0.029469        -0.700114
 C         2.550544         1.390969        -1.298754
 O         1.212004         0.999578        -1.898819
 C         1.277240         0.475177        -0.516766
 C         0.106160        -0.304678         0.192659
 H         0.580053         3.088630         1.240611
 H         1.785140         3.958625         0.168761
 H         0.379547         3.235056        -0.423887
 H         3.963346         1.986762         1.011740
 H         2.771942         1.396673         2.048125
 H         3.104615        -0.944129        -1.254192
 H         3.313399         2.092888        -1.830409
 H         0.487449        -0.334614         1.292965
 H        -0.822397         0.299931         0.272642
 H        -0.212704        -1.205300        -0.207457
