19
Iteration:   881
 C         1.337464         3.098691         0.085630
 C         1.931239         1.648775         0.094513
 C         2.957364         1.129867         1.107390
 O         3.706819         0.144309         0.291046
 C         2.770675         0.045046        -0.727310
 C         2.534913         1.364204        -1.318195
 O         1.116606         0.945379        -1.790665
 C         1.232236         0.434797        -0.382088
 C         0.058283        -0.207144         0.292390
 H         0.557734         3.195419         0.949442
 H         2.105106         3.827374         0.091083
 H         0.815763         3.149653        -0.781621
 H         3.636394         1.868941         1.419245
 H         2.436840         0.732609         2.103919
 H         3.048148        -0.904392        -1.389481
 H         2.974927         2.031588        -1.976474
 H         0.454238        -1.011241         1.179632
 H        -0.610772         0.443110         0.899983
 H        -0.374029        -0.755346        -0.516625
