19
Iteration:  3463
 C         1.339883         3.081356         0.193553
 C         1.999607         1.760314        -0.036006
 C         2.978014         1.259609         1.122688
 O         3.527840         0.099926         0.446953
 C         2.661086        -0.058797        -0.743858
 C         2.564677         1.348252        -1.363333
 O         1.167450         1.006767        -1.827623
 C         1.290978         0.411376        -0.411396
 C         0.091059        -0.345988         0.217337
 H         1.025152         2.994315         1.285743
 H         2.041919         3.877352         0.158725
 H         0.530459         3.431238        -0.560343
 H         3.804899         2.060913         1.238029
 H         2.532936         1.056983         2.152267
 H         3.016896        -0.853941        -1.459037
 H         3.146205         2.007331        -2.094911
 H         0.488829        -0.490147         1.246455
 H        -0.734919         0.367410         0.334326
 H        -0.002991        -1.451170        -0.144681
