19
Iteration:   907
 C         1.315270         3.160829         0.242997
 C         2.008369         1.774264         0.069370
 C         3.063659         1.296747         1.018610
 O         3.553679         0.080931         0.413821
 C         2.676174        -0.035166        -0.702906
 C         2.513549         1.300051        -1.364931
 O         1.148777         0.980263        -1.868929
 C         1.252550         0.401403        -0.407016
 C         0.125244        -0.372402         0.247137
 H         0.722836         3.181546         1.125633
 H         2.134391         3.946288         0.192867
 H         0.579202         3.346864        -0.669781
 H         3.910543         1.973772         1.309911
 H         2.504652         1.086059         1.959087
 H         2.902972        -0.862656        -1.217033
 H         3.108626         1.807366        -2.218357
 H         0.578351        -1.012468         0.943289
 H        -0.483962         0.276766         0.935613
 H        -0.573633        -0.850446        -0.503945
