19
Iteration:  1344charge 0 multiplicity 1
 C         1.114904         3.000485         0.179887
 C         1.984170         1.782938         0.029373
 C         3.107964         1.363309         0.981880
 O         3.434531         0.028073         0.536132
 C         2.691027        -0.064533        -0.728874
 C         2.617254         1.242342        -1.440095
 O         1.200858         1.068655        -1.896127
 C         1.309744         0.475455        -0.413067
 C         0.197885        -0.295039         0.359972
 H         0.602150         2.734708         1.125440
 H         1.738445         3.983525         0.242511
 H         0.458380         3.292392        -0.796366
 H         4.078311         1.986590         0.959914
 H         2.877395         1.311172         2.039762
 H         2.769278        -1.062319        -1.189803
 H         3.410911         1.798875        -2.112471
 H         0.503235        -0.914427         1.245541
 H        -0.466975         0.478466         0.739542
 H        -0.334429        -1.032431        -0.307596
