19
Iteration:   578charge 0 multiplicity 1
 C         1.337979         3.011403         0.190550
 C         2.008153         1.717592         0.076890
 C         2.945554         1.108698         1.097834
 O         3.650161         0.149956         0.350357
 C         2.707460        -0.033280        -0.724438
 C         2.484372         1.374345        -1.387784
 O         1.167909         1.075498        -1.851260
 C         1.223608         0.423958        -0.429237
 C         0.105818        -0.259571         0.295613
 H         0.756850         3.063119         1.123888
 H         2.080893         3.837631         0.165776
 H         0.720769         3.108878        -0.649236
 H         3.578884         1.970468         1.473027
 H         2.524583         0.621727         1.956203
 H         2.964986        -1.013067        -1.378677
 H         3.148414         1.989839        -2.014872
 H         0.278937        -0.049127         1.434264
 H        -0.878584         0.189653         0.157118
 H         0.063596        -1.257724         0.124070
