19
Iteration:   895charge 0 multiplicity 1
 C         1.333232         3.095735         0.147116
 C         1.970133         1.784085         0.096617
 C         3.013997         1.230748         1.106185
 O         3.619149         0.155612         0.303098
 C         2.683681        -0.066895        -0.760890
 C         2.491952         1.364704        -1.300522
 O         1.208872         0.921304        -1.815091
 C         1.207297         0.445248        -0.412642
 C         0.079957        -0.321781         0.287113
 H         0.737585         3.355834         1.033777
 H         2.141227         3.882490         0.218557
 H         0.729355         3.277822        -0.821363
 H         3.759973         1.954644         1.427017
 H         2.594444         0.673669         1.989671
 H         2.797466        -0.868077        -1.366645
 H         3.301551         1.892144        -1.917874
 H         0.538529        -1.098298         0.909390
 H        -0.504259         0.457279         0.861589
 H        -0.624887        -0.956862        -0.285470
