19
Iteration:  1097charge 0 multiplicity 1
 C         1.243961         3.055304         0.312015
 C         2.128991         1.835529         0.055573
 C         3.263100         1.450770         0.925639
 O         3.360813         0.060398         0.576173
 C         2.646196        -0.051533        -0.679574
 C         2.454496         1.280459        -1.435811
 O         1.120749         0.927134        -1.810879
 C         1.295508         0.473816        -0.374595
 C         0.169035        -0.393281         0.087691
 H         0.644164         2.942220         1.292111
 H         1.723408         4.064791         0.144604
 H         0.553570         3.032069        -0.487517
 H         4.212976         2.110350         0.600656
 H         3.209418         1.425384         1.953871
 H         2.770269        -1.192400        -1.126777
 H         3.111852         1.773131        -2.120249
 H         0.531115        -0.977531         0.958659
 H        -0.580868         0.232468         0.443110
 H        -0.222573        -0.841652        -0.769637
