19
Iteration:  1622charge 0 multiplicity 1
 C         1.218455         3.077915         0.167553
 C         2.004006         1.769952         0.021778
 C         3.135732         1.370307         1.024577
 O         3.374405        -0.010293         0.572376
 C         2.764575        -0.023439        -0.702142
 C         2.521715         1.392885        -1.435611
 O         1.181957         0.936801        -1.780455
 C         1.303533         0.415575        -0.460902
 C         0.162986        -0.285978         0.207964
 H         0.947465         3.187577         1.292324
 H         1.751329         3.969631        -0.249039
 H         0.337262         3.018209        -0.416200
 H         4.021239         1.973073         0.769792
 H         2.919473         1.416363         2.137400
 H         3.048089        -0.941081        -1.234140
 H         3.112971         1.816451        -2.152138
 H         0.559544        -0.894376         0.972771
 H        -0.678507         0.342110         0.549940
 H        -0.177006        -1.138782        -0.397606
