19
Iteration:  4228charge 0 multiplicity 1
 C         1.170454         2.947287         0.344112
 C         1.930761         1.790174         0.061199
 C         3.187415         1.387637         0.999632
 O         3.447355         0.005171         0.568978
 C         2.786732        -0.093949        -0.808119
 C         2.590271         1.339456        -1.356374
 O         1.231836         0.951066        -1.862939
 C         1.212591         0.417800        -0.513674
 C         0.119239        -0.172553         0.180071
 H         0.628133         2.781491         1.245264
 H         1.730519         3.940244         0.428319
 H         0.330052         3.232637        -0.351610
 H         4.046133         2.069438         0.807755
 H         2.895058         1.561806         2.034779
 H         3.051710        -0.921793        -1.416854
 H         3.128727         1.880592        -2.082328
 H         0.420786        -0.657786         1.185000
 H        -0.772569         0.521823         0.342838
 H        -0.213473        -0.923298        -0.553356
