19
Iteration:  4618charge 0 multiplicity 1
 C         1.143537         2.943690         0.356889
 C         2.070227         1.818648         0.019549
 C         3.116122         1.320736         1.106394
 O         3.440894        -0.001426         0.486150
 C         2.740111        -0.066911        -0.674919
 C         2.565976         1.356441        -1.455774
 O         1.182045         0.947164        -1.868550
 C         1.330400         0.516225        -0.531475
 C         0.140317        -0.178366         0.151242
 H         0.702798         2.715283         1.332351
 H         1.588631         3.860347         0.356796
 H         0.387960         3.066919        -0.520692
 H         3.981055         1.994664         1.099546
 H         2.591380         1.161863         2.132141
 H         2.952708        -1.007105        -1.114576
 H         3.231344         2.016003        -2.127111
 H         0.408357        -0.718072         1.123185
 H        -0.735201         0.484407         0.265711
 H        -0.272613        -1.049895        -0.278968
