19
Iteration:  1123
 C         1.280749         3.114571         0.215727
 C         1.976983         1.743170        -0.000039
 C         3.154478         1.399206         0.932604
 O         3.626823         0.070251         0.458708
 C         2.695155        -0.045304        -0.618546
 C         2.502674         1.325848        -1.344974
 O         1.185124         0.949537        -1.749543
 C         1.203931         0.417203        -0.390421
 C         0.013750        -0.383897         0.148585
 H         0.848616         3.197634         1.255733
 H         1.923261         3.937748        -0.011773
 H         0.380827         3.142119        -0.516272
 H         3.945507         2.141463         0.683909
 H         2.990127         1.249842         2.079888
 H         2.830566        -0.945970        -1.148466
 H         3.226108         1.918674        -1.932894
 H         0.336250        -1.190368         0.773751
 H        -0.718668         0.315563         0.712412
 H        -0.602136        -0.753440        -0.736130
