19
Iteration:  2842charge 0 multiplicity 1
 C         1.185685         3.090834         0.219604
 C         1.989710         1.780013         0.006588
 C         3.001716         1.372369         1.013496
 O         3.556642        -0.024885         0.389915
 C         2.799332        -0.099046        -0.694770
 C         2.549285         1.344377        -1.324011
 O         1.229126         0.930365        -1.814034
 C         1.208253         0.466103        -0.443804
 C         0.114612        -0.238305         0.299044
 H         0.706634         3.040659         1.105105
 H         1.775010         3.997376         0.052384
 H         0.336665         3.019698        -0.621485
 H         3.886995         2.029906         1.233644
 H         2.649013         1.115115         2.002938
 H         3.172461        -0.961133        -1.413542
 H         3.199901         1.907800        -2.101932
 H         0.575451        -0.589167         1.233083
 H        -0.594493         0.626274         0.385063
 H        -0.380351        -1.093136        -0.186794
