19
Iteration:  2020
 C         1.308649         3.109439         0.155551
 C         1.925656         1.740959         0.031938
 C         3.076327         1.381867         1.042192
 O         3.618944         0.103812         0.463625
 C         2.737681        -0.035760        -0.675569
 C         2.529575         1.322253        -1.365778
 O         1.109088         0.929403        -1.773243
 C         1.262284         0.395965        -0.398818
 C         0.045281        -0.336097         0.153000
 H         0.729971         3.187994         1.083042
 H         2.193757         3.759655         0.302678
 H         0.727595         3.432513        -0.821088
 H         3.876660         2.164860         1.288026
 H         2.564066         1.151747         2.006075
 H         2.908096        -0.969910        -1.185773
 H         3.242209         1.867213        -2.019050
 H         0.497603        -0.997377         1.033099
 H        -0.887400         0.212641         0.391167
 H        -0.048039        -1.102471        -0.614870
