19
Iteration:  4175charge 0 multiplicity 1
 C         1.270550         3.047884         0.188942
 C         1.983004         1.795131         0.111501
 C         2.978122         1.200849         1.104498
 O         3.612879         0.119597         0.459840
 C         2.717064        -0.061562        -0.726933
 C         2.629441         1.294344        -1.461502
 O         1.101693         1.027451        -1.753861
 C         1.241238         0.480388        -0.385732
 C         0.141259        -0.311735         0.115821
 H         1.000682         3.350639         1.224788
 H         1.947964         3.997912        -0.051047
 H         0.509323         3.084628        -0.651016
 H         3.686791         1.978643         1.371311
 H         2.389068         0.850494         1.949839
 H         2.873919        -0.949353        -1.241552
 H         3.112454         1.780256        -2.343975
 H         0.487607        -0.706345         1.082466
 H        -0.765984         0.308111         0.326526
 H        -0.120034        -1.206285        -0.500225
