19
Iteration:  3682charge 0 multiplicity 1
 C         1.207961         2.991330         0.301061
 C         1.966932         1.709362         0.017537
 C         3.193626         1.407857         0.940878
 O         3.432982        -0.016075         0.472815
 C         2.724893        -0.068222        -0.675496
 C         2.562289         1.324248        -1.335624
 O         1.193310         1.024772        -1.843928
 C         1.256099         0.422446        -0.404235
 C         0.109513        -0.237274         0.148286
 H         0.536216         2.859088         1.203561
 H         1.859379         3.860800         0.621986
 H         0.518097         3.420999        -0.590296
 H         4.069447         2.007170         0.684071
 H         3.014573         1.356210         2.031356
 H         3.063179        -0.978323        -1.129071
 H         3.235927         2.013594        -1.816101
 H         0.416825        -0.560402         1.205069
 H        -0.744430         0.425354         0.200633
 H        -0.168656        -0.964315        -0.566270
