19
Iteration:  1953
 C         1.202518         3.006582         0.273750
 C         1.998919         1.726627        -0.008674
 C         3.068121         1.388672         0.972126
 O         3.458463         0.074189         0.511085
 C         2.716029        -0.029101        -0.707894
 C         2.581476         1.295928        -1.375417
 O         1.243988         0.983359        -1.925968
 C         1.277482         0.426026        -0.416434
 C         0.130575        -0.269524         0.284822
 H         0.867744         3.096860         1.376957
 H         1.734241         3.827672        -0.097534
 H         0.231803         3.125342        -0.387808
 H         4.060284         1.999991         0.985520
 H         2.654494         1.320791         1.985620
 H         2.895431        -0.908326        -1.211504
 H         3.238068         1.787367        -2.013085
 H         0.514863        -0.700103         1.342669
 H        -0.823417         0.327700         0.421035
 H        -0.231397        -1.158517        -0.218114
