19
Iteration:   944charge 0 multiplicity 1
 C         1.278902         3.023511         0.394508
 C         2.090980         1.808634        -0.037579
 C         3.266392         1.423266         0.881545
 O         3.298525         0.041499         0.584246
 C         2.648665         0.000737        -0.647703
 C         2.474543         1.338202        -1.447038
 O         1.136679         0.929583        -1.807421
 C         1.276736         0.393355        -0.451471
 C         0.196067        -0.326405         0.149596
 H         0.809956         3.038294         1.427969
 H         1.760283         4.015277         0.389904
 H         0.498370         3.080851        -0.345641
 H         4.310794         1.818854         0.602585
 H         3.012567         1.645735         1.899705
 H         2.885706        -1.017549        -1.292500
 H         3.155485         1.848475        -2.108665
 H         0.525472        -1.014206         0.924258
 H        -0.577693         0.348095         0.405671
 H        -0.061143        -1.055878        -0.612698
