19
Iteration:  4283charge 0 multiplicity 1
 C         1.286946         3.086844         0.280955
 C         1.945705         1.778825         0.048073
 C         3.033738         1.274242         1.079301
 O         3.586593         0.107422         0.364465
 C         2.764619         0.004167        -0.701581
 C         2.558105         1.336199        -1.300765
 O         1.157806         0.904104        -1.801086
 C         1.320200         0.386215        -0.461493
 C         0.003888        -0.270540         0.131511
 H         0.458591         2.964090         0.913908
 H         2.043548         3.891594         0.592050
 H         0.708969         3.187307        -0.660604
 H         3.928801         1.910998         1.313208
 H         2.547197         1.057776         2.078998
 H         3.097440        -0.855293        -1.204670
 H         3.298871         1.812299        -1.931608
 H         0.182487        -0.506225         1.212480
 H        -0.709704         0.585557         0.005108
 H        -0.342123        -1.203428        -0.430210
