19
Iteration:   446charge 0 multiplicity 1
 C         1.259506         3.010478         0.180016
 C         1.949659         1.673888         0.043603
 C         2.930954         1.198571         1.077322
 O         3.725842         0.165771         0.335530
 C         2.753342        -0.057870        -0.740697
 C         2.544794         1.348118        -1.326286
 O         1.181002         1.012350        -1.815803
 C         1.284827         0.406149        -0.406484
 C         0.030900        -0.192698         0.270862
 H         0.797103         3.032454         1.224923
 H         1.949968         3.870498         0.100645
 H         0.471435         3.226113        -0.512017
 H         3.739507         1.861083         1.416182
 H         2.395263         0.704066         1.961039
 H         2.927594        -1.025099        -1.303325
 H         3.214908         1.990104        -1.857194
 H         0.265461        -1.033007         0.978348
 H        -0.548678         0.631246         0.642053
 H        -0.679774        -0.562976        -0.335237
