19
Iteration:    46charge 0 multiplicity 1
 C         1.395710         3.129468         0.176782
 C         1.892283         1.739673         0.065632
 C         2.950034         1.278331         1.113044
 O         3.759254         0.270223         0.368593
 C         2.858776        -0.001947        -0.642161
 C         2.476668         1.290201        -1.347946
 O         1.168646         0.790397        -1.883007
 C         1.103746         0.471346        -0.360057
 C        -0.011558        -0.355115         0.179981
 H         0.497868         3.310051         0.757724
 H         2.230515         3.735565         0.659172
 H         1.272702         3.501703        -0.756317
 H         3.552376         1.987239         1.562586
 H         2.450975         0.738721         1.910568
 H         3.118961        -0.845688        -1.165245
 H         3.144773         1.835422        -2.085957
 H         0.275921        -0.934741         0.952616
 H        -0.784697         0.298688         0.582824
 H        -0.508362        -1.037320        -0.596585
