19
Iteration:   318charge 0 multiplicity 1
 C         1.274062         3.092427         0.281274
 C         2.030019         1.754574         0.064156
 C         3.012491         1.195670         1.169189
 O         3.656880         0.175093         0.363407
 C         2.827069         0.034151        -0.754522
 C         2.446161         1.323249        -1.348108
 O         1.116770         0.808496        -1.798812
 C         1.339567         0.303317        -0.398509
 C        -0.005026        -0.102780         0.072216
 H         0.782609         3.406695         1.203080
 H         1.968406         3.964989        -0.091517
 H         0.538388         3.016843        -0.453976
 H         3.783887         1.937294         1.626661
 H         2.543581         0.582345         1.977860
 H         3.082428        -0.932714        -1.330572
 H         2.846298         1.981279        -2.089698
 H        -0.011596        -0.393008         1.229327
 H        -0.687865         0.758705         0.165825
 H        -0.229165        -1.089785        -0.483177
