19
Iteration:  2392charge 0 multiplicity 1
 C         1.311857         3.078087         0.139927
 C         1.981335         1.734027         0.041291
 C         3.022946         1.225555         1.051229
 O         3.603596         0.130106         0.465679
 C         2.690193        -0.032938        -0.735637
 C         2.528482         1.339670        -1.349711
 O         1.129713         0.946920        -1.795919
 C         1.268280         0.417610        -0.390787
 C         0.154597        -0.273027         0.248373
 H         0.826189         3.305636         1.061984
 H         1.993509         3.835472         0.030179
 H         0.614472         3.210065        -0.795681
 H         3.589219         2.154657         1.336673
 H         2.403327         0.975125         1.905413
 H         2.849907        -0.971654        -1.450605
 H         2.972367         1.825007        -2.229209
 H         0.468997        -0.748259         1.223526
 H        -0.582539         0.459816         0.509164
 H        -0.275504        -0.966246        -0.541612
