19
Iteration:  4330
 C         1.256932         3.113608         0.194210
 C         2.070920         1.807983         0.026608
 C         3.021272         1.274094         1.138364
 O         3.459397         0.061794         0.464063
 C         2.666001        -0.098581        -0.745205
 C         2.600435         1.374077        -1.342839
 O         1.150544         1.002907        -1.772747
 C         1.296092         0.444406        -0.517445
 C         0.160471        -0.378037         0.167330
 H         0.838989         3.314845         1.226538
 H         1.999659         3.932782         0.047429
 H         0.354236         3.165423        -0.373741
 H         3.772364         2.009803         1.385737
 H         2.531296         1.073071         2.082303
 H         2.890358        -1.004597        -1.361550
 H         3.225007         1.938810        -2.044162
 H         0.512903        -0.622226         1.125205
 H        -0.722875         0.235125         0.103628
 H         0.052709        -1.346501        -0.486796
