19
Iteration:   234
 C         1.223293         3.059601         0.219567
 C         2.043458         1.809495         0.005230
 C         3.124399         1.376519         0.954459
 O         3.387553        -0.019993         0.581013
 C         2.732831        -0.022535        -0.683681
 C         2.481174         1.369698        -1.380693
 O         1.169185         0.979790        -1.807751
 C         1.286638         0.425292        -0.372854
 C         0.203767        -0.377946         0.174054
 H         0.337453         3.008091         0.835191
 H         1.937443         3.823097         0.607999
 H         0.969182         3.467197        -0.813762
 H         4.071003         1.919056         0.652494
 H         2.986107         1.624881         1.977468
 H         2.881298        -0.994707        -1.385213
 H         3.068306         2.127477        -2.099195
 H         0.525670        -0.926602         0.994907
 H        -0.689292         0.260049         0.349392
 H        -0.067287        -1.169112        -0.656566
