19
Iteration:  3002
 C         1.118030         3.003456         0.239355
 C         2.039242         1.785573         0.034309
 C         3.106597         1.353093         0.951215
 O         3.467455         0.037730         0.503880
 C         2.648649        -0.040919        -0.684612
 C         2.580073         1.298162        -1.392044
 O         1.291121         1.038288        -1.885526
 C         1.275253         0.353994        -0.464248
 C         0.119900        -0.239827         0.323868
 H         0.555091         3.079423         1.289668
 H         1.720063         3.882451         0.073998
 H         0.378046         3.080801        -0.570925
 H         4.039328         2.009268         0.961633
 H         2.890096         1.269223         2.075613
 H         3.021899        -0.901127        -1.412936
 H         3.302498         1.625333        -2.167890
 H         0.435619        -0.709203         1.238818
 H        -0.586183         0.511233         0.693205
 H        -0.464063        -1.044307        -0.352993
