19
Iteration:  4608
 C         1.151591         2.957016         0.345821
 C         2.096795         1.818241         0.017097
 C         3.077411         1.315081         0.991557
 O         3.552214         0.019400         0.562323
 C         2.731155        -0.047763        -0.724479
 C         2.571429         1.287965        -1.403293
 O         1.193779         0.981357        -1.873319
 C         1.233424         0.482721        -0.460241
 C         0.106236        -0.184961         0.124987
 H         0.582546         2.746864         1.245602
 H         1.629620         3.861174         0.511623
 H         0.354993         2.875389        -0.494057
 H         3.893422         1.950893         1.359372
 H         2.499514         1.053735         1.992635
 H         2.797758        -0.871769        -1.349219
 H         3.136695         1.920940        -2.159486
 H         0.540161        -0.496315         1.135582
 H        -0.670254         0.540583         0.434461
 H        -0.229160        -0.951342        -0.582820
