19
Iteration:   768
 C         1.307235         3.077757         0.364210
 C         2.042863         1.769629         0.022525
 C         3.124774         1.295682         1.017552
 O         3.571946         0.054839         0.454812
 C         2.698729        -0.072342        -0.683442
 C         2.477141         1.350885        -1.445957
 O         1.075934         0.960181        -1.803504
 C         1.269774         0.429765        -0.389939
 C         0.118477        -0.284446         0.122424
 H         0.740681         3.152196         1.227532
 H         1.989761         3.951375         0.292899
 H         0.573280         3.318244        -0.507980
 H         3.983167         1.968354         1.134128
 H         2.635616         1.326471         1.978835
 H         2.888707        -0.997038        -1.140516
 H         3.135507         1.927215        -2.169805
 H         0.114937        -0.365742         1.172034
 H        -0.879949         0.154108        -0.183856
 H         0.065502        -1.300156        -0.492555
