19
Iteration:  4447charge 0 multiplicity 1
 C         1.202932         2.973633         0.236616
 C         2.000007         1.751829         0.035322
 C         3.000012         1.281944         1.077811
 O         3.615982         0.074443         0.395948
 C         2.794594        -0.024951        -0.688381
 C         2.555171         1.301327        -1.396356
 O         1.228255         1.017963        -1.805074
 C         1.236122         0.461659        -0.396720
 C         0.050002        -0.220284         0.147717
 H         0.523216         2.948771         1.042919
 H         1.922137         3.866806         0.516765
 H         0.446503         3.096317        -0.543066
 H         3.809259         2.070150         1.388013
 H         2.652579         0.658793         1.949061
 H         2.871655        -0.972972        -1.130151
 H         3.321437         1.853195        -1.897959
 H         0.071362        -0.587859         1.166016
 H        -0.727074         0.584405         0.147536
 H        -0.375660        -1.113158        -0.472066
