19
Iteration:   273
 C         1.133823         2.963046         0.283793
 C         2.047677         1.774696         0.024172
 C         3.058932         1.378432         1.023941
 O         3.444126         0.020571         0.487204
 C         2.667110        -0.099643        -0.731970
 C         2.565081         1.296812        -1.422511
 O         1.267212         1.046697        -1.928428
 C         1.301023         0.486013        -0.475920
 C         0.178092        -0.250637         0.303969
 H         0.706385         2.863144         1.313968
 H         1.500512         4.027480         0.251450
 H         0.329743         2.845342        -0.401839
 H         4.012110         1.920892         0.992988
 H         2.648780         1.366576         2.082457
 H         2.983049        -0.994927        -1.145446
 H         3.244451         1.755074        -2.051789
 H         0.586314        -0.735258         1.288773
 H        -0.484893         0.505650         0.760799
 H        -0.246796        -1.031277        -0.289234
