19
Iteration:  3061
 C         1.286810         3.137243         0.248581
 C         2.065866         1.818527         0.019881
 C         3.024066         1.328174         1.076473
 O         3.620331         0.114984         0.411342
 C         2.684801        -0.152943        -0.692971
 C         2.480258         1.302499        -1.368940
 O         1.161983         0.869215        -1.795620
 C         1.276158         0.425154        -0.345231
 C         0.075622        -0.257221         0.141429
 H         0.631249         3.221902         1.131630
 H         2.064306         3.956192         0.384343
 H         0.639415         3.504628        -0.707720
 H         3.779672         2.032399         1.173415
 H         2.496830         1.117174         2.015113
 H         2.851760        -0.923392        -1.325998
 H         3.001080         1.868191        -2.159515
 H         0.127393        -0.805101         1.140188
 H        -0.907373         0.258773        -0.086608
 H         0.161691        -1.017626        -0.545446
