19
Iteration:  1155charge 0 multiplicity 1
 C         1.327482         3.024581         0.157910
 C         2.028324         1.723100         0.003204
 C         3.022469         1.216568         1.183710
 O         3.610224         0.187837         0.408425
 C         2.787586         0.062430        -0.734484
 C         2.437111         1.328545        -1.453901
 O         1.108882         0.833705        -1.800314
 C         1.282087         0.415339        -0.384367
 C         0.085622        -0.201159         0.258460
 H         0.922068         3.244559         1.192132
 H         2.053263         3.790448         0.034981
 H         0.497783         3.116237        -0.638098
 H         3.593230         2.142501         1.461018
 H         2.608468         0.785241         2.093157
 H         3.035615        -0.824083        -1.317414
 H         3.111961         1.815854        -2.139118
 H         0.097566        -1.022872         0.900090
 H        -0.533611         0.614912         0.647921
 H        -0.455695        -0.660767        -0.514260
