19
Iteration:  4428charge 0 multiplicity 1
 C         1.172374         3.013820         0.275014
 C         2.075007         1.757996         0.074100
 C         3.018680         1.248892         1.115070
 O         3.669085         0.178565         0.387128
 C         2.678112        -0.133949        -0.708461
 C         2.600397         1.313788        -1.359943
 O         1.196458         0.955524        -1.793931
 C         1.252675         0.430617        -0.418116
 C        -0.007219        -0.173584         0.130231
 H         0.329273         2.901377         1.035872
 H         1.691990         3.913720         0.637755
 H         0.631819         3.206343        -0.612477
 H         3.986947         1.793037         1.233495
 H         2.382325         1.032781         2.049546
 H         3.094674        -0.957104        -1.403020
 H         3.223405         1.651184        -2.189182
 H         0.290119        -0.686357         0.999037
 H        -0.710013         0.636991         0.046987
 H        -0.161656        -0.943940        -0.762730
