19
Iteration:  1889
 C         1.200227         2.997339         0.271645
 C         2.020120         1.753270         0.068346
 C         3.122934         1.364025         0.996078
 O         3.602127         0.166957         0.408949
 C         2.752258        -0.091126        -0.646157
 C         2.573991         1.265457        -1.349239
 O         1.218055         0.931259        -1.819505
 C         1.174024         0.403891        -0.474353
 C        -0.003363        -0.243700         0.198366
 H         0.314717         2.925474         0.796566
 H         1.827438         3.833734         0.550718
 H         0.827799         3.255619        -0.817558
 H         3.922854         2.053398         1.022250
 H         2.699502         1.354598         2.056472
 H         2.942310        -0.953525        -1.147632
 H         3.204522         1.776199        -2.074294
 H         0.427712        -0.274459         1.298690
 H        -0.906612         0.408477         0.143305
 H        -0.379106        -1.161675        -0.218787
