19
Iteration:  3678charge 0 multiplicity 1
 C         1.217113         3.002196         0.295903
 C         1.999915         1.723950        -0.011976
 C         3.130763         1.418613         0.955613
 O         3.430356        -0.003663         0.457256
 C         2.733026        -0.081055        -0.677645
 C         2.527838         1.305385        -1.353149
 O         1.193135         1.044206        -1.836548
 C         1.283045         0.435830        -0.364405
 C         0.113838        -0.269007         0.152473
 H         0.609445         2.809876         1.142397
 H         1.887486         3.879541         0.698316
 H         0.689635         3.337512        -0.531948
 H         4.058820         1.942765         0.725163
 H         3.132502         1.390184         2.039770
 H         3.084010        -1.018744        -1.107449
 H         3.288413         2.013861        -1.762710
 H         0.264339        -0.595488         1.154075
 H        -0.736078         0.430259         0.179556
 H        -0.245590        -1.090254        -0.614933
