19
Iteration:  2581
 C         1.246869         3.092117         0.215021
 C         2.002257         1.747542         0.045913
 C         3.114659         1.372666         1.027097
 O         3.496641         0.012018         0.497520
 C         2.757851        -0.040190        -0.727059
 C         2.529207         1.347115        -1.370719
 O         1.108524         0.974185        -1.863131
 C         1.231557         0.409225        -0.421589
 C         0.182955        -0.313620         0.238676
 H         0.781186         3.032435         1.168984
 H         1.978360         3.958301         0.081059
 H         0.580656         3.478325        -0.595289
 H         4.132077         1.920451         1.101695
 H         2.538294         1.311683         1.994768
 H         3.000005        -0.987978        -1.104155
 H         3.222253         1.775907        -2.153565
 H         0.322716        -0.914983         1.165871
 H        -0.578520         0.534103         0.384658
 H        -0.365939        -1.086854        -0.464360
