19
Iteration:  3549charge 0 multiplicity 1
 C         1.138953         2.950105         0.335520
 C         2.080462         1.797805         0.029290
 C         3.208165         1.395202         0.943774
 O         3.517180        -0.023420         0.533363
 C         2.714404        -0.042263        -0.629672
 C         2.567767         1.353501        -1.361596
 O         1.168427         0.981671        -1.933445
 C         1.250139         0.468782        -0.401901
 C         0.042161        -0.223925         0.142709
 H         0.497209         2.878344         1.195506
 H         1.814511         3.845218         0.231375
 H         0.419245         2.995855        -0.500350
 H         4.194779         1.920869         0.825170
 H         2.796352         1.328422         1.984821
 H         2.835827        -0.967731        -1.229809
 H         3.310031         1.797500        -2.101215
 H         0.366936        -0.656663         1.077295
 H        -0.719345         0.476876         0.455729
 H        -0.426984        -1.158756        -0.416852
