19
Iteration:  3932
 C         1.228211         3.052211         0.257814
 C         2.055607         1.734912         0.081647
 C         3.101472         1.398785         1.000846
 O         3.477068         0.011521         0.450249
 C         2.722801        -0.073211        -0.764274
 C         2.534789         1.380302        -1.359801
 O         1.195201         0.952432        -1.799773
 C         1.297144         0.398734        -0.401389
 C         0.073732        -0.257867         0.123160
 H         0.592235         3.004998         1.091639
 H         1.758409         4.053049         0.478396
 H         0.505357         3.329908        -0.533690
 H         4.003365         2.078559         1.180146
 H         2.687904         1.227108         2.035631
 H         2.968508        -1.090213        -1.217056
 H         3.258721         1.894314        -1.923664
 H         0.325277        -0.671233         1.162967
 H        -0.752469         0.438039         0.291437
 H        -0.186505        -1.116497        -0.415296
