19
Iteration:  2983charge 0 multiplicity 1
 C         1.200556         3.016353         0.194604
 C         2.052350         1.773260        -0.028710
 C         3.097057         1.325157         1.064593
 O         3.512484         0.008038         0.469905
 C         2.825229        -0.044700        -0.712057
 C         2.598960         1.337790        -1.378767
 O         1.137419         0.884939        -1.844904
 C         1.229634         0.558829        -0.432474
 C         0.086879        -0.199408         0.248888
 H         0.715373         2.820134         1.230816
 H         1.497094         4.034370         0.149658
 H         0.228520         2.939843        -0.487466
 H         3.934011         1.943472         1.256138
 H         2.627906         1.182550         2.079173
 H         2.912330        -1.037889        -1.207474
 H         3.144612         2.061173        -2.031068
 H         0.609747        -0.670561         1.095646
 H        -0.747563         0.450248         0.597631
 H        -0.322640        -1.038454        -0.343511
