19
Iteration:  3316
 C         1.209430         2.998949         0.243024
 C         2.026693         1.730001         0.003265
 C         3.060444         1.349247         1.024426
 O         3.481232         0.083135         0.462078
 C         2.667143        -0.074051        -0.732718
 C         2.648994         1.282284        -1.429754
 O         1.174378         1.032926        -1.807238
 C         1.303217         0.447507        -0.417272
 C         0.103491        -0.275994         0.240072
 H         0.734512         2.936956         1.179497
 H         2.077601         3.767050         0.301698
 H         0.490328         3.257584        -0.435505
 H         3.825133         2.110228         1.308147
 H         2.379403         1.064763         1.915999
 H         3.005718        -1.047072        -1.219299
 H         3.257561         1.916997        -2.041462
 H         0.398256        -0.624818         1.281832
 H        -0.612207         0.581274         0.250836
 H        -0.198465        -1.133076        -0.377541
