19
Iteration:  3093
 C         1.376754         3.134649         0.235222
 C         2.012169         1.715010         0.078982
 C         3.061448         1.339172         1.143022
 O         3.573981         0.190020         0.431905
 C         2.747764        -0.077533        -0.744516
 C         2.504628         1.313294        -1.383504
 O         1.159829         0.959319        -1.871930
 C         1.241179         0.308237        -0.457849
 C        -0.031563        -0.359772         0.212242
 H         0.885602         3.295409         1.206115
 H         2.165882         3.837772         0.122597
 H         0.672982         3.348832        -0.664769
 H         3.837154         2.072365         1.223887
 H         2.690252         1.163707         2.194482
 H         3.089276        -0.909313        -1.230448
 H         3.050154         1.933483        -2.109894
 H         0.108972        -0.453685         1.295569
 H        -0.923115         0.285892         0.062624
 H        -0.185194        -1.261270        -0.248008
