19
Iteration:   973
 C         1.186982         3.054512         0.347328
 C         1.955548         1.719879         0.017235
 C         3.229751         1.380636         0.873543
 O         3.575974         0.006745         0.459104
 C         2.690033        -0.041958        -0.661566
 C         2.524771         1.309261        -1.364306
 O         1.234699         0.971472        -1.823220
 C         1.206184         0.442926        -0.405539
 C         0.013830        -0.266292         0.194126
 H         0.737976         3.050855         1.300552
 H         1.859718         3.965146         0.182896
 H         0.319193         3.183398        -0.455414
 H         4.094432         2.019433         0.655574
 H         3.027749         1.511355         1.945845
 H         2.798409        -0.872885        -1.241925
 H         3.302571         1.973808        -1.941693
 H         0.264032        -0.485825         1.225767
 H        -0.945196         0.324272         0.223513
 H        -0.032485        -1.332065        -0.261506
