19
Iteration:   505
 C         1.251771         3.019637         0.401852
 C         1.971747         1.767654         0.088819
 C         3.216015         1.404096         0.920151
 O         3.511258         0.108970         0.468179
 C         2.671168        -0.110464        -0.667008
 C         2.588462         1.250115        -1.382277
 O         1.178780         1.030875        -1.819377
 C         1.188700         0.444645        -0.482036
 C         0.046547        -0.306732         0.093774
 H         0.762216         2.784514         1.346602
 H         1.880774         3.959625         0.603021
 H         0.431821         3.117071        -0.387251
 H         4.074765         1.970690         0.645818
 H         3.062305         1.552131         2.059408
 H         2.889761        -1.051382        -1.178987
 H         3.368894         1.590272        -2.117805
 H         0.358458        -0.923431         0.933036
 H        -0.682763         0.337149         0.602794
 H        -0.321992        -1.015472        -0.749851
