19
Iteration:  4265
 C         1.173026         3.032618         0.332866
 C         2.031794         1.745411         0.029817
 C         3.076430         1.332486         1.044524
 O         3.633313         0.080596         0.502774
 C         2.699992        -0.089124        -0.702462
 C         2.543894         1.282331        -1.421818
 O         1.196166         0.926092        -1.843675
 C         1.287142         0.534161        -0.430040
 C         0.036077        -0.191726         0.120877
 H         0.479403         2.706503         1.212530
 H         1.868164         3.744872         0.789160
 H         0.656152         3.410189        -0.546163
 H         3.835860         2.073431         1.176359
 H         2.648592         1.022974         1.972469
 H         2.903160        -1.056654        -1.226972
 H         2.956982         1.844556        -2.322632
 H         0.209317        -0.662090         1.038278
 H        -0.896096         0.325528         0.110106
 H        -0.025250        -1.086075        -0.615627
