19
Iteration:  1330
 C         1.226441         3.046052         0.168281
 C         2.057521         1.792780        -0.004042
 C         3.012318         1.287431         1.078513
 O         3.505084         0.072394         0.432756
 C         2.713749        -0.055866        -0.689884
 C         2.529323         1.326471        -1.400395
 O         1.203348         0.927569        -1.856136
 C         1.252384         0.461913        -0.413011
 C         0.182921        -0.240420         0.304510
 H         0.679233         3.047401         1.087329
 H         1.765394         3.977326         0.163349
 H         0.353186         2.971278        -0.591253
 H         3.868012         2.062742         1.264254
 H         2.516967         1.067326         1.985700
 H         2.931228        -0.916388        -1.251630
 H         3.189720         1.817305        -2.151831
 H         0.707671        -0.689228         1.087976
 H        -0.602844         0.391129         0.761005
 H        -0.355888        -0.967707        -0.294769
