19
Iteration:   358charge 0 multiplicity 1
 C         1.305026         3.063995         0.330547
 C         2.006729         1.751496         0.107032
 C         3.164432         1.380483         0.999273
 O         3.571601         0.134348         0.420049
 C         2.686675        -0.091662        -0.651407
 C         2.522335         1.265354        -1.358308
 O         1.149610         1.030239        -1.849145
 C         1.194020         0.414369        -0.441232
 C         0.028034        -0.378414         0.084836
 H         0.608769         3.074455         1.236184
 H         2.102912         3.761488         0.519617
 H         0.706219         3.406797        -0.581537
 H         3.991838         1.971875         0.873628
 H         2.783115         1.450873         2.068245
 H         2.895785        -0.950110        -1.167597
 H         3.363392         1.719706        -1.850241
 H         0.151640        -0.462231         1.242366
 H        -0.970894         0.035352        -0.185529
 H         0.020273        -1.325144        -0.323276
