19
Iteration:  4886
 C         1.326925         3.065793         0.293129
 C         1.950820         1.768325         0.045812
 C         3.079562         1.379321         0.987380
 O         3.473263         0.060408         0.472259
 C         2.686113        -0.029196        -0.623045
 C         2.572789         1.326490        -1.354161
 O         1.206256         0.986320        -1.853399
 C         1.152022         0.469754        -0.471868
 C         0.148065        -0.383863         0.106408
 H         0.957977         3.015311         1.334232
 H         2.069104         3.905925         0.274848
 H         0.474044         3.172175        -0.281359
 H         4.022253         1.936897         1.018812
 H         2.799474         1.103775         2.051958
 H         2.817248        -0.974654        -1.160232
 H         3.330388         1.861838        -1.951309
 H         0.533163        -0.491018         1.134885
 H        -0.854643         0.063792         0.124202
 H         0.058056        -1.316146        -0.437671
