19
Iteration:  1705
 C         1.297855         3.064765         0.205898
 C         2.013335         1.702647         0.031176
 C         2.962490         1.278944         1.068016
 O         3.731116         0.199382         0.411577
 C         2.862018        -0.031008        -0.712828
 C         2.452658         1.316909        -1.369850
 O         1.139659         0.805700        -1.757617
 C         1.288464         0.368839        -0.411288
 C        -0.072871        -0.162702         0.160467
 H         0.492237         3.179263         0.822880
 H         2.054046         3.847384         0.528176
 H         0.863780         3.332283        -0.801471
 H         3.691404         1.980323         1.464419
 H         2.452389         0.860070         1.892675
 H         3.121402        -0.900388        -1.139370
 H         2.985056         2.076416        -2.117931
 H         0.121339        -0.106314         1.267421
 H        -0.932320         0.456688        -0.001855
 H        -0.339416        -1.092887        -0.219947
