19
Iteration:  1376
 C         1.172106         2.973411         0.207838
 C         2.050601         1.816961         0.037121
 C         3.235604         1.372708         0.914846
 O         3.386297         0.026720         0.601737
 C         2.728995        -0.036250        -0.665119
 C         2.546174         1.362518        -1.393544
 O         1.149180         0.900099        -1.837926
 C         1.266550         0.434626        -0.463183
 C         0.188628        -0.240770         0.220871
 H         0.354769         2.663349         0.868709
 H         1.687858         3.797999         0.800216
 H         0.543528         3.296235        -0.776257
 H         4.270424         1.896254         0.548658
 H         3.129320         1.489944         1.962335
 H         2.692131        -0.953311        -1.237814
 H         3.157605         2.155423        -2.027440
 H         0.453736        -0.699525         1.143802
 H        -0.651210         0.412679         0.471964
 H        -0.390140        -0.909502        -0.459228
