19
Iteration:  1608charge 0 multiplicity 1
 C         1.227458         3.079625         0.118320
 C         2.036101         1.811726        -0.004683
 C         3.062077         1.316325         1.031505
 O         3.571051         0.053276         0.521181
 C         2.725426        -0.057330        -0.650120
 C         2.529045         1.349013        -1.327893
 O         1.098188         0.903306        -1.812185
 C         1.291873         0.415499        -0.434917
 C         0.130652        -0.305896         0.168037
 H         0.867917         3.215245         1.156925
 H         1.942028         3.962403        -0.034391
 H         0.401394         3.197507        -0.526182
 H         3.994660         1.972779         1.256350
 H         2.598230         1.121284         1.960946
 H         2.936166        -0.888283        -1.216320
 H         3.049839         2.087019        -2.048086
 H         0.489699        -0.856128         1.109429
 H        -0.473783         0.516683         0.606801
 H        -0.464699        -0.766712        -0.593989
