19
Iteration:  2142charge 0 multiplicity 1
 C         1.309272         3.054703         0.164975
 C         2.033107         1.734139         0.029202
 C         3.046809         1.245463         1.084127
 O         3.619173         0.191294         0.432345
 C         2.744623         0.002781        -0.638810
 C         2.480566         1.366021        -1.395050
 O         1.098144         0.891451        -1.780050
 C         1.309703         0.342885        -0.369823
 C         0.052662        -0.262395         0.165811
 H         0.749433         3.050730         1.063557
 H         1.936482         3.948457         0.005372
 H         0.596051         3.197206        -0.723900
 H         3.793841         2.062477         1.293742
 H         2.509009         0.922520         2.037800
 H         2.889888        -0.901003        -1.288710
 H         3.134015         1.900168        -2.177804
 H         0.158849        -0.606527         1.247951
 H        -0.584970         0.577205        -0.057650
 H        -0.295810        -1.098230        -0.499264
