19
Iteration:   159
 C         1.245411         3.042182         0.264630
 C         1.996092         1.769471         0.041150
 C         2.975531         1.321958         1.083103
 O         3.652504         0.107076         0.446752
 C         2.796032        -0.042494        -0.726886
 C         2.470584         1.346719        -1.382530
 O         1.199586         0.845472        -1.808850
 C         1.263985         0.381617        -0.444686
 C         0.059099        -0.165142         0.137165
 H         1.149159         3.258746         1.321395
 H         1.772777         3.848719        -0.186288
 H         0.218740         2.991376        -0.260194
 H         3.651061         1.995609         1.518065
 H         2.298271         0.984708         1.956713
 H         3.168156        -0.915164        -1.398204
 H         3.060096         1.837311        -2.238462
 H         0.286186        -0.257121         1.223923
 H        -0.747342         0.566657         0.157776
 H        -0.083771        -1.225381        -0.149080
