19
Iteration:  2086charge 0 multiplicity 1
 C         1.141823         2.946206         0.292622
 C         2.052248         1.705250         0.011993
 C         3.117608         1.440020         1.049229
 O         3.438163         0.041706         0.508264
 C         2.793864        -0.088548        -0.723853
 C         2.504283         1.370274        -1.459433
 O         1.198540         0.911568        -1.841645
 C         1.312673         0.392078        -0.471666
 C         0.137735        -0.131179         0.205912
 H         0.607303         2.983594         1.222631
 H         1.713688         3.877854         0.415879
 H         0.382443         3.046337        -0.610499
 H         4.028887         2.143905         1.161016
 H         2.708138         1.244088         2.085445
 H         2.843234        -1.088295        -1.298397
 H         3.164315         1.862434        -2.253065
 H         0.520872        -0.198005         1.326220
 H        -0.665049         0.592092         0.307392
 H        -0.132318        -1.149260        -0.066733
