19
Iteration:  4180
 C         1.261133         3.046308         0.174384
 C         2.004544         1.815453         0.102307
 C         2.981693         1.233956         1.147065
 O         3.570025         0.074513         0.391781
 C         2.743301        -0.015761        -0.706541
 C         2.647350         1.267137        -1.428614
 O         1.098485         1.015370        -1.768064
 C         1.285233         0.485252        -0.400131
 C         0.102237        -0.300855         0.133189
 H         0.923023         3.273496         1.216467
 H         1.845672         3.856179        -0.079297
 H         0.424437         3.110656        -0.489372
 H         3.704057         2.074437         1.341031
 H         2.460544         0.881542         2.085229
 H         3.010496        -0.999262        -1.257024
 H         3.157691         1.856551        -2.240183
 H         0.504577        -0.703844         1.084899
 H        -0.811250         0.211601         0.389342
 H        -0.138616        -1.192326        -0.472666
