19
Iteration:  4312
 C         1.347349         3.079680         0.178472
 C         1.895704         1.703319         0.078598
 C         2.993611         1.227059         1.113938
 O         3.599061         0.039095         0.479315
 C         2.804464         0.054975        -0.731443
 C         2.481604         1.367105        -1.324349
 O         1.126253         1.002336        -1.855779
 C         1.272032         0.458540        -0.429134
 C         0.090276        -0.318231         0.135748
 H         0.776665         3.280935         1.140828
 H         2.100038         3.793802        -0.017395
 H         0.709973         3.025388        -0.743257
 H         3.872436         1.900621         1.188560
 H         2.515276         0.958323         2.083213
 H         3.187930        -0.876577        -1.282147
 H         3.226226         2.017712        -1.907208
 H         0.406779        -0.512401         1.227425
 H        -0.834162         0.289499         0.154993
 H        -0.108581        -1.227228        -0.265747
