19
Iteration:  2101charge 0 multiplicity 1
 C         1.141147         2.940834         0.212334
 C         2.004479         1.783780        -0.001415
 C         3.053797         1.303897         1.011694
 O         3.605133         0.086824         0.437945
 C         2.698139        -0.060927        -0.678090
 C         2.572029         1.343940        -1.364281
 O         1.235685         0.940787        -1.871124
 C         1.287625         0.413877        -0.444977
 C         0.067357        -0.167965         0.321856
 H         0.641907         2.843866         1.198008
 H         1.861081         3.897211         0.156611
 H         0.403592         3.054957        -0.534022
 H         3.908239         1.957054         1.101274
 H         2.573045         1.155054         2.039495
 H         3.107770        -0.876132        -1.239304
 H         3.183683         1.954118        -2.054736
 H         0.250301        -0.302028         1.414246
 H        -0.847279         0.525008         0.125288
 H        -0.342672        -1.160796        -0.147860
