19
Iteration:  4120charge 0 multiplicity 1
 C         1.272919         3.135498         0.306609
 C         1.951043         1.753915         0.062419
 C         3.091417         1.382157         0.999474
 O         3.500871        -0.012306         0.482995
 C         2.730016        -0.070612        -0.659153
 C         2.450217         1.394523        -1.338872
 O         1.211088         0.934441        -1.945119
 C         1.264693         0.376895        -0.387326
 C         0.125648        -0.303732         0.137273
 H         0.588584         3.050175         1.160466
 H         2.158127         3.781733         0.689445
 H         0.721860         3.523966        -0.614687
 H         4.003803         2.040765         0.839752
 H         2.973159         1.268835         2.085165
 H         2.899576        -0.871588        -1.316007
 H         3.050697         2.065695        -1.949189
 H         0.444600        -0.642163         1.145141
 H        -0.769128         0.355357         0.194423
 H        -0.017584        -1.175365        -0.470381
