19
Iteration:  1693
 C         1.296378         3.029358         0.201084
 C         1.987200         1.779157         0.008874
 C         3.022953         1.306560         1.098066
 O         3.612232         0.165090         0.406625
 C         2.764145        -0.055937        -0.649968
 C         2.476333         1.372036        -1.415948
 O         1.181579         0.820716        -1.766175
 C         1.288539         0.328535        -0.395399
 C         0.047556        -0.187305         0.169349
 H         0.737667         2.899961         1.066162
 H         2.085523         3.791628         0.415873
 H         0.715140         3.470973        -0.727343
 H         3.739977         2.054170         1.360896
 H         2.442567         0.992109         1.974492
 H         2.999125        -0.817833        -1.326899
 H         2.927140         2.002525        -2.292176
 H        -0.076261        -0.243503         1.271840
 H        -0.574778         0.562652        -0.281948
 H        -0.207729        -1.179149        -0.081344
