19
Iteration:  4576
 C         1.260072         3.012819         0.266755
 C         1.972277         1.664989         0.166738
 C         3.064834         1.315774         1.093128
 O         3.586593         0.139928         0.421923
 C         2.757618        -0.039787        -0.750578
 C         2.553338         1.309279        -1.338862
 O         1.209021         0.942076        -1.829464
 C         1.253381         0.413379        -0.459185
 C         0.010207        -0.228986         0.088614
 H         0.495729         3.144158         1.006948
 H         1.854050         3.983377         0.270057
 H         0.761840         3.304559        -0.743886
 H         3.915253         1.947035         1.349420
 H         2.674740         0.901457         2.121130
 H         2.935531        -0.940435        -1.212836
 H         2.987489         2.088127        -2.005206
 H         0.441911        -0.758181         1.020595
 H        -0.583038         0.673480         0.365252
 H        -0.588170        -0.848268        -0.632512
