19
Iteration:  1970
 C         1.243651         3.089898         0.153024
 C         1.931618         1.761712         0.011350
 C         3.001003         1.303701         1.072096
 O         3.611731         0.076886         0.422298
 C         2.731151        -0.090709        -0.651463
 C         2.513509         1.333360        -1.338950
 O         1.213330         0.949319        -1.826034
 C         1.261820         0.480960        -0.444697
 C         0.103821        -0.310460         0.231571
 H         1.049664         3.313480         1.205295
 H         1.945650         3.976482        -0.075083
 H         0.396952         3.006569        -0.443634
 H         3.661734         2.125039         1.153724
 H         2.582420         1.086365         2.078683
 H         2.975151        -1.055943        -1.277792
 H         3.211328         1.954635        -2.024651
 H         0.480486        -0.686392         1.143421
 H        -0.651240         0.409014         0.522030
 H        -0.209549        -1.189998        -0.402116
