19
Iteration:  4627charge 0 multiplicity 1
 C         1.164953         2.967343         0.319567
 C         2.027807         1.731823         0.010336
 C         3.069688         1.311934         1.088703
 O         3.387672         0.011450         0.484946
 C         2.717777        -0.054647        -0.705694
 C         2.587679         1.464389        -1.446851
 O         1.225309         0.957021        -1.874931
 C         1.340832         0.429792        -0.455333
 C         0.156843        -0.206163         0.184042
 H         0.644759         2.834602         1.327359
 H         1.668587         3.913311         0.366030
 H         0.236912         3.153351        -0.279073
 H         4.063709         1.779837         1.024345
 H         2.911595         1.334825         2.167083
 H         3.024715        -1.018451        -1.201399
 H         3.253350         1.814010        -2.306106
 H         0.447189        -0.418958         1.256338
 H        -0.674091         0.514606         0.232877
 H        -0.092357        -0.957178        -0.471112
