19
Iteration:  2837
 C         1.215413         3.058196         0.204327
 C         1.983589         1.822140         0.021081
 C         2.995938         1.331989         1.032395
 O         3.589464        -0.003226         0.384820
 C         2.803243        -0.100913        -0.679010
 C         2.535897         1.387305        -1.368909
 O         1.225535         0.921263        -1.835723
 C         1.226402         0.413254        -0.433999
 C         0.078533        -0.210811         0.304060
 H         0.618699         3.029231         1.239824
 H         1.737815         4.013561        -0.028893
 H         0.538841         3.045368        -0.575100
 H         3.825111         1.969771         1.292749
 H         2.521576         1.060683         2.015085
 H         3.214214        -1.070430        -1.194971
 H         2.949910         1.999239        -2.157403
 H         0.527595        -0.563478         1.243522
 H        -0.571144         0.619687         0.551556
 H        -0.385207        -1.028653        -0.318015
