19
Iteration:  4664
 C         1.242033         3.075427         0.247545
 C         1.964794         1.778118         0.084312
 C         3.093851         1.289065         1.099345
 O         3.539461         0.060044         0.511754
 C         2.696467        -0.061911        -0.724508
 C         2.587520         1.377996        -1.356007
 O         1.204916         1.012299        -1.861287
 C         1.194572         0.394901        -0.517784
 C         0.092597        -0.295299         0.157640
 H         0.879451         2.999785         1.232093
 H         2.023766         3.817041         0.236477
 H         0.607020         3.181735        -0.677121
 H         3.875366         2.063595         0.995897
 H         2.722477         0.996735         2.152036
 H         2.899954        -0.871459        -1.375884
 H         3.148301         1.956992        -2.097817
 H         0.433197        -0.635262         1.147529
 H        -0.883327         0.187152         0.144795
 H         0.001148        -1.368281        -0.233415
