19
Iteration:   769
 C         1.312102         3.068971         0.364525
 C         2.041932         1.768413         0.014419
 C         3.132879         1.301383         1.016922
 O         3.561313         0.050090         0.462970
 C         2.705826        -0.069720        -0.682329
 C         2.471633         1.359271        -1.452925
 O         1.074244         0.956016        -1.799559
 C         1.270340         0.435964        -0.395485
 C         0.122858        -0.282552         0.117782
 H         0.722174         3.139671         1.281822
 H         1.984212         3.937836         0.294094
 H         0.584515         3.318900        -0.480266
 H         3.954863         1.973940         1.096633
 H         2.649883         1.359530         2.009525
 H         2.889006        -1.028990        -1.155256
 H         3.134114         1.910121        -2.147069
 H         0.113036        -0.371896         1.201278
 H        -0.861662         0.132489        -0.212340
 H         0.051308        -1.271401        -0.478308
