19
Iteration:    74charge 0 multiplicity 1
 C         1.279747         3.085064         0.202550
 C         1.978359         1.770723         0.032633
 C         3.022382         1.368554         1.003695
 O         3.532657         0.141416         0.453354
 C         2.743016        -0.058638        -0.643180
 C         2.505190         1.328312        -1.371053
 O         1.195030         0.924988        -1.796447
 C         1.279105         0.364411        -0.406881
 C         0.117351        -0.354922         0.140407
 H         0.461987         3.094655         0.960741
 H         2.005096         3.820810         0.490393
 H         0.825180         3.465125        -0.811181
 H         3.915285         2.085846         1.215503
 H         2.587415         1.151577         2.059245
 H         3.100028        -1.031259        -1.102562
 H         3.045892         1.846113        -2.124880
 H         0.510161        -0.894898         1.137778
 H        -0.569381         0.488975         0.442351
 H        -0.544703        -0.951745        -0.459241
