19
Iteration:  2619charge 0 multiplicity 1
 C         1.162585         2.992083         0.288796
 C         2.069190         1.831738        -0.024349
 C         3.282150         1.410021         1.022369
 O         3.490715         0.043513         0.498451
 C         2.648093        -0.049747        -0.703271
 C         2.524340         1.301968        -1.365186
 O         1.198023         0.901981        -1.885695
 C         1.251234         0.464051        -0.434322
 C         0.058890        -0.262785         0.210758
 H         0.538769         2.815905         1.271968
 H         1.737741         3.877981         0.496807
 H         0.452269         3.121334        -0.489192
 H         4.147427         2.023074         0.855620
 H         3.067273         1.415866         2.141605
 H         2.661020        -1.087399        -1.200889
 H         3.152468         1.895953        -1.984731
 H         0.349521        -0.819892         1.122945
 H        -0.746928         0.415063         0.440203
 H        -0.254336        -0.853897        -0.581805
