19
Iteration:   986charge 0 multiplicity 1
 C         1.241619         2.976134         0.262451
 C         1.984861         1.752333         0.095724
 C         3.114862         1.338482         0.984893
 O         3.607460         0.094745         0.368213
 C         2.713983        -0.097375        -0.683681
 C         2.493067         1.341200        -1.310889
 O         1.141782         0.926092        -1.822631
 C         1.273729         0.439425        -0.390243
 C         0.074844        -0.179995         0.197694
 H         0.774132         3.065158         1.268679
 H         1.953114         3.875739         0.234593
 H         0.436132         3.053683        -0.562990
 H         3.878309         2.177645         0.867259
 H         2.964650         1.062934         1.988092
 H         2.940465        -1.052043        -1.288718
 H         3.219716         1.818892        -2.074346
 H         0.093463        -0.256292         1.242989
 H        -0.761519         0.440154        -0.158470
 H        -0.167802        -1.182190        -0.298598
