19
Iteration:  2146
 C         1.334226         3.054795         0.154797
 C         2.014455         1.755226         0.013922
 C         3.049306         1.299721         1.079054
 O         3.610168         0.166727         0.443520
 C         2.757440        -0.018689        -0.699066
 C         2.464090         1.380430        -1.378010
 O         1.100328         0.886695        -1.775770
 C         1.304309         0.342697        -0.345928
 C         0.061310        -0.279901         0.155216
 H         0.709228         2.989465         1.086498
 H         2.031836         3.962701         0.054060
 H         0.632078         3.114181        -0.586614
 H         3.754046         2.054824         1.355917
 H         2.523563         0.959067         2.030270
 H         2.927506        -0.933226        -1.166547
 H         3.129933         1.844391        -2.035717
 H         0.179482        -0.559336         1.168290
 H        -0.700105         0.609225         0.005603
 H        -0.292513        -1.126751        -0.535686
