19
Iteration:  1460charge 0 multiplicity 1
 C         1.281586         3.150815         0.147198
 C         1.970801         1.773760         0.007813
 C         2.982337         1.258469         1.034968
 O         3.627785         0.033722         0.467309
 C         2.811407        -0.045151        -0.692135
 C         2.511543         1.435015        -1.347069
 O         1.098099         0.846676        -1.775953
 C         1.327916         0.418408        -0.427869
 C         0.053855        -0.262450         0.224289
 H         1.254633         3.409266         1.173499
 H         1.860382         3.835179        -0.340685
 H         0.275145         3.308499        -0.323927
 H         3.803722         1.842956         1.348657
 H         2.430041         0.901285         1.958795
 H         3.051241        -0.800160        -1.388490
 H         3.102300         2.027158        -2.033539
 H         0.146076        -0.244993         1.256865
 H        -0.803597         0.380102        -0.130696
 H         0.075295        -1.316998        -0.128387
