19
Iteration:  3353
 C         1.244669         3.070250         0.238143
 C         1.947678         1.741523         0.030311
 C         3.092968         1.265203         1.080936
 O         3.616063         0.083988         0.448127
 C         2.808570         0.015227        -0.806049
 C         2.547224         1.356827        -1.365584
 O         1.206409         0.815920        -1.846642
 C         1.271774         0.402700        -0.363336
 C        -0.012008        -0.151839         0.210511
 H         0.512736         3.066489         1.124869
 H         1.905220         3.842766         0.598064
 H         0.648815         3.435740        -0.696082
 H         3.884360         1.946388         1.452858
 H         2.676185         0.837541         1.943636
 H         2.794057        -0.897048        -1.351091
 H         3.021659         1.996194        -2.153152
 H         0.177202        -0.664154         1.103245
 H        -0.825583         0.524539         0.431212
 H        -0.672983        -0.710578        -0.561239
