19
Iteration:  1517
 C         1.177223         3.006536         0.270842
 C         2.044363         1.844672         0.018971
 C         3.173069         1.410500         0.935150
 O         3.421141         0.013298         0.578283
 C         2.677649        -0.096508        -0.642815
 C         2.530281         1.287383        -1.393406
 O         1.188104         0.948693        -1.891100
 C         1.280569         0.463373        -0.447351
 C         0.189527        -0.255470         0.214384
 H         0.453387         2.687784         0.939797
 H         1.657673         3.836927         0.698570
 H         0.548923         3.191859        -0.691453
 H         4.052396         2.057449         0.646598
 H         2.973559         1.570842         1.965184
 H         2.910222        -0.943004        -1.380814
 H         3.279289         1.829638        -2.168310
 H         0.575760        -0.601950         1.198910
 H        -0.709048         0.324487         0.518293
 H        -0.283108        -1.092061        -0.370692
