19
Iteration:  1702
 C         1.305185         3.059280         0.206604
 C         2.032281         1.707670         0.021513
 C         2.965575         1.298298         1.061403
 O         3.711492         0.188955         0.407813
 C         2.818411        -0.021163        -0.686964
 C         2.450379         1.338664        -1.381733
 O         1.158539         0.804459        -1.741381
 C         1.305445         0.360031        -0.426788
 C        -0.047421        -0.168819         0.163368
 H         0.450910         3.115262         0.936890
 H         2.075600         3.775804         0.469703
 H         0.807128         3.403638        -0.851759
 H         3.692518         1.961639         1.461603
 H         2.406319         0.835313         1.997803
 H         3.165205        -0.972663        -1.206600
 H         2.836087         2.032492        -2.100006
 H         0.074469        -0.080622         1.235037
 H        -0.910844         0.475675        -0.052572
 H        -0.384369        -1.152338        -0.223999
