19
Iteration:  4501
 C         1.249533         3.045325         0.328904
 C         2.033991         1.807609        -0.003393
 C         3.025368         1.317952         0.983673
 O         3.428513        -0.023732         0.609056
 C         2.697297        -0.083510        -0.757749
 C         2.541969         1.415016        -1.415462
 O         1.236598         1.021292        -1.859276
 C         1.259788         0.491970        -0.442664
 C         0.154945        -0.358089         0.161706
 H         0.937086         3.121339         1.347786
 H         1.831751         4.064597         0.119805
 H         0.403111         3.247494        -0.376234
 H         3.898898         2.004042         0.947351
 H         2.709505         1.108040         1.967315
 H         2.815468        -0.981554        -1.280323
 H         3.236652         1.983480        -2.019506
 H         0.654195        -0.643386         1.092621
 H        -0.882685         0.004417         0.190511
 H         0.276561        -1.322569        -0.426208
