19
Iteration:  4711
 C         1.303806         3.130596         0.212823
 C         2.008414         1.747279         0.084244
 C         3.068675         1.255769         1.114770
 O         3.621060         0.105260         0.470245
 C         2.771641        -0.004176        -0.705944
 C         2.483699         1.351218        -1.395422
 O         1.137624         0.949580        -1.794878
 C         1.194346         0.427441        -0.358016
 C         0.045063        -0.352042         0.026492
 H         0.706907         3.125704         1.102519
 H         2.123350         3.951809         0.293692
 H         0.830492         3.284881        -0.683414
 H         3.918748         1.915948         1.375577
 H         2.409550         1.056178         1.968849
 H         3.002731        -0.967071        -1.302049
 H         3.221459         1.790470        -2.028013
 H         0.224423        -0.699172         1.020535
 H        -0.711891         0.442322         0.116529
 H        -0.290937        -1.268883        -0.596698
