19
Iteration:  3200charge 0 multiplicity 1
 C         1.229498         3.104372         0.212970
 C         2.047926         1.776228         0.019209
 C         3.063191         1.281621         1.031907
 O         3.606307         0.045130         0.426800
 C         2.771456        -0.037147        -0.676603
 C         2.545535         1.431314        -1.352304
 O         1.196731         0.829151        -1.821558
 C         1.281709         0.396532        -0.408776
 C        -0.022036        -0.191873         0.203432
 H         0.495409         2.935461         1.120515
 H         1.827432         3.915010         0.539006
 H         0.589134         3.462185        -0.653284
 H         3.857374         2.041964         1.263138
 H         2.534610         0.900942         1.944042
 H         3.011652        -0.829245        -1.264125
 H         3.126597         1.987763        -2.081800
 H         0.106083        -0.890853         1.022896
 H        -0.820688         0.518257         0.469001
 H        -0.492932        -0.985542        -0.585124
