19
Iteration:  3721charge 0 multiplicity 1
 C         1.117639         2.969843         0.305373
 C         2.015164         1.733621        -0.000560
 C         3.128054         1.318746         0.991250
 O         3.497467         0.019145         0.462042
 C         2.738973        -0.054713        -0.738043
 C         2.571626         1.358721        -1.375827
 O         1.224982         0.966631        -1.856329
 C         1.341905         0.428934        -0.414455
 C         0.076914        -0.117351         0.239845
 H         0.996266         2.985517         1.378745
 H         1.771992         3.905379         0.198425
 H         0.256623         2.963819        -0.255790
 H         4.003111         1.922552         1.428642
 H         2.507506         1.067541         1.915116
 H         2.874150        -0.924419        -1.387551
 H         3.132081         1.916441        -2.177659
 H         0.134891        -0.697088         1.127137
 H        -0.775338         0.561242         0.366436
 H        -0.257187        -0.946250        -0.561566
