19
Iteration:  3435charge 0 multiplicity 1
 C         1.262051         3.097390         0.210788
 C         1.958692         1.773267         0.036729
 C         3.120559         1.315225         1.065627
 O         3.419147        -0.067142         0.528798
 C         2.708426        -0.020905        -0.703356
 C         2.513534         1.374934        -1.364240
 O         1.157963         0.979023        -1.846266
 C         1.291527         0.465543        -0.450835
 C         0.195226        -0.312282         0.173536
 H         0.901626         3.162192         1.210680
 H         1.940575         3.946220        -0.130436
 H         0.380346         3.197816        -0.372816
 H         3.937410         1.944161         0.825644
 H         2.997675         1.224947         2.130769
 H         3.050948        -0.720077        -1.441076
 H         2.991579         1.935100        -2.118873
 H         0.592552        -0.542895         1.202492
 H        -0.680699         0.332009         0.259919
 H         0.127205        -1.211583        -0.285022
