19
Iteration:  1723
 C         1.257714         3.080454         0.147589
 C         1.916677         1.664498         0.078807
 C         3.003203         1.244395         1.106906
 O         3.770442         0.226783         0.356178
 C         2.904769        -0.023457        -0.687449
 C         2.546441         1.207162        -1.343615
 O         1.164938         0.866671        -1.846383
 C         1.134120         0.484844        -0.380105
 C        -0.052475        -0.180180         0.257873
 H         0.318280         2.944303         0.837957
 H         2.019294         3.715949         0.549382
 H         0.858668         3.576831        -0.895389
 H         3.685378         2.051664         1.365027
 H         2.757347         0.701528         2.179656
 H         3.352733        -0.910007        -1.383445
 H         3.035110         1.722601        -2.085886
 H        -0.099896        -0.383947         1.321216
 H        -0.900372         0.554236         0.079516
 H        -0.427969        -1.020046        -0.468135
