19
Iteration:   231charge 0 multiplicity 1
 C         1.230832         3.072802         0.200067
 C         2.014408         1.786203         0.015058
 C         3.137884         1.388417         0.954788
 O         3.407661         0.005305         0.572388
 C         2.717092        -0.019353        -0.676078
 C         2.473999         1.366181        -1.385027
 O         1.182145         0.989124        -1.800885
 C         1.297553         0.405124        -0.397903
 C         0.164684        -0.407037         0.161604
 H         0.357177         3.114524         0.853038
 H         2.021405         3.788445         0.664302
 H         1.029865         3.485117        -0.736610
 H         4.110543         2.003930         0.704408
 H         2.983029         1.453619         2.043716
 H         2.826620        -0.929516        -1.334099
 H         3.054036         2.026910        -2.062871
 H         0.458532        -0.899595         1.062624
 H        -0.617997         0.312996         0.426631
 H        -0.023884        -1.197292        -0.611290
