19
Iteration:   598
 C         1.282173         3.078552         0.195555
 C         1.991416         1.723391         0.083432
 C         3.003857         1.203456         1.090065
 O         3.704496         0.162408         0.245460
 C         2.736933        -0.087606        -0.751337
 C         2.585339         1.332729        -1.317175
 O         1.140757         0.992294        -1.728752
 C         1.201460         0.451492        -0.378480
 C         0.008358        -0.255642         0.197331
 H         0.723124         3.132036         1.174903
 H         1.973606         3.854688         0.282445
 H         0.613589         3.263217        -0.543930
 H         3.741167         1.926449         1.558343
 H         2.421379         0.731425         1.818273
 H         2.966763        -1.050792        -1.386621
 H         3.375490         1.650182        -1.962123
 H        -0.088014        -0.258836         1.329571
 H        -0.870624         0.343000         0.005517
 H        -0.008014        -1.236967        -0.163944
