19
Iteration:  1195charge 0 multiplicity 1
 C         1.154523         3.055561         0.207866
 C         1.970632         1.759432         0.026910
 C         3.026933         1.304670         1.033641
 O         3.527278         0.067961         0.437375
 C         2.691054        -0.038330        -0.735134
 C         2.606391         1.289203        -1.405867
 O         1.192350         0.965600        -1.903741
 C         1.295536         0.430604        -0.439219
 C         0.181724        -0.222186         0.376938
 H         0.519341         2.820132         1.111384
 H         1.797035         3.905955         0.556572
 H         0.492740         3.269656        -0.551002
 H         3.934469         1.961120         0.959877
 H         2.713616         1.079402         2.103765
 H         2.946209        -1.057190        -1.344659
 H         3.258771         1.625353        -2.178302
 H         0.638732        -0.404921         1.430347
 H        -0.522998         0.593372         0.466086
 H        -0.332600        -1.095429        -0.063764
