19
Iteration:  4717
 C         1.331265         3.110178         0.258075
 C         1.953024         1.799534         0.112630
 C         3.050777         1.294224         1.109212
 O         3.585757         0.087560         0.421327
 C         2.774292        -0.006131        -0.672514
 C         2.492759         1.302371        -1.382622
 O         1.161547         0.971374        -1.866335
 C         1.261788         0.393949        -0.378947
 C         0.030552        -0.334470         0.065701
 H         0.622245         3.092628         1.129307
 H         2.100864         3.824455         0.201653
 H         0.821092         3.187002        -0.813588
 H         3.880575         1.960967         1.361841
 H         2.705205         1.062107         2.185693
 H         3.028267        -0.886458        -1.174730
 H         3.200617         1.926144        -2.026168
 H         0.217313        -0.817503         1.086882
 H        -0.844568         0.331237         0.157112
 H        -0.340286        -1.155890        -0.509648
