19
Iteration:  3513
 C         1.233188         2.993259         0.267347
 C         1.990486         1.779193         0.046494
 C         3.105092         1.361207         1.011817
 O         3.572716         0.043667         0.413459
 C         2.778606         0.005606        -0.722438
 C         2.545668         1.324254        -1.327078
 O         1.150849         0.892290        -1.798110
 C         1.292377         0.375683        -0.421154
 C         0.006641        -0.198027         0.161463
 H         0.594570         3.000391         1.156964
 H         1.948866         3.885548         0.707973
 H         0.858277         3.283842        -0.675916
 H         3.878633         2.068245         1.168411
 H         2.595551         1.303658         1.948275
 H         3.068016        -0.937494        -1.207056
 H         3.200848         1.759736        -2.071992
 H         0.147732        -0.595664         1.175035
 H        -0.739274         0.678364         0.144983
 H        -0.471448        -0.941315        -0.573375
