19
Iteration:  3587
 C         1.263973         3.034844         0.272423
 C         1.974754         1.744464         0.022691
 C         3.043978         1.293937         1.045966
 O         3.539868         0.005620         0.530560
 C         2.706963        -0.069758        -0.691814
 C         2.508266         1.354624        -1.448233
 O         1.127705         1.011051        -1.834101
 C         1.311592         0.455420        -0.463726
 C         0.185848        -0.257300         0.172211
 H         0.975354         3.348363         1.300970
 H         1.856032         3.841327        -0.072311
 H         0.439046         3.055874        -0.462852
 H         3.880332         2.042810         1.260069
 H         2.485395         1.118436         1.996459
 H         2.901545        -0.932542        -1.356724
 H         3.240249         1.931549        -1.974616
 H         0.569462        -0.602027         1.173911
 H        -0.701401         0.424135         0.335465
 H        -0.191634        -0.991608        -0.440328
