19
Iteration:  2519
 C         1.335373         3.077179         0.191918
 C         2.027922         1.767055         0.073929
 C         3.060788         1.326909         1.067275
 O         3.546141         0.107893         0.430802
 C         2.790527        -0.069539        -0.731606
 C         2.470808         1.341399        -1.424955
 O         1.136317         0.933831        -1.759457
 C         1.270526         0.405581        -0.466589
 C         0.055113        -0.301746         0.212435
 H         0.709986         3.034194         1.189941
 H         2.192163         3.914853         0.122302
 H         0.531596         3.215805        -0.496708
 H         3.777873         2.064870         1.395271
 H         2.558742         1.105266         2.049556
 H         2.934622        -1.058421        -1.261398
 H         2.929530         2.040648        -2.126102
 H         0.308275        -0.515560         1.335110
 H        -0.734747         0.407564        -0.055643
 H        -0.176822        -1.258622        -0.147221
