19
Iteration:  1128charge 0 multiplicity 1
 C         1.280522         3.120367         0.196283
 C         1.980916         1.764993         0.028005
 C         3.096740         1.367934         0.936790
 O         3.648857         0.086404         0.436529
 C         2.749607        -0.085462        -0.636876
 C         2.492811         1.345152        -1.314634
 O         1.173498         0.937695        -1.728705
 C         1.223652         0.407829        -0.412875
 C         0.010199        -0.354905         0.138368
 H         0.925249         3.306540         1.193514
 H         2.014306         3.968383         0.029583
 H         0.452949         3.104720        -0.480799
 H         3.707361         2.282252         0.784274
 H         2.888281         1.170844         1.987216
 H         2.818111        -1.117268        -1.161747
 H         3.166306         1.937301        -1.999409
 H         0.221545        -1.234918         0.820364
 H        -0.542666         0.417328         0.694688
 H        -0.736333        -0.832066        -0.592404
