19
Iteration:  3447
 C         1.317328         3.070782         0.243965
 C         1.993941         1.748606         0.078608
 C         3.065933         1.318952         0.992963
 O         3.445965        -0.000594         0.516399
 C         2.809295        -0.021261        -0.711661
 C         2.493109         1.398158        -1.393729
 O         1.165807         1.016108        -1.865907
 C         1.214092         0.419394        -0.505981
 C         0.169067        -0.332198         0.262537
 H         0.950893         3.420389         1.169655
 H         2.028206         3.958836        -0.026112
 H         0.633570         2.960250        -0.523223
 H         3.899249         1.938703         1.194301
 H         2.543814         1.138301         1.961734
 H         2.921588        -0.961919        -1.211139
 H         3.126108         1.936931        -2.038503
 H         0.394125        -0.567452         1.307527
 H        -0.846541         0.067084         0.233056
 H        -0.113923        -1.186983        -0.258995
