19
Iteration:  2536
 C         1.325830         3.141917         0.194788
 C         1.979451         1.800829         0.021012
 C         2.986788         1.214222         1.091904
 O         3.656590         0.118259         0.431487
 C         2.718384        -0.039757        -0.698187
 C         2.498688         1.307033        -1.382673
 O         1.067907         0.964919        -1.828699
 C         1.285367         0.358205        -0.385839
 C         0.119967        -0.276058         0.227415
 H         0.845235         3.309729         1.080808
 H         2.044668         3.878394        -0.090749
 H         0.680006         3.371697        -0.723211
 H         3.731913         2.033016         1.456492
 H         2.477024         0.765437         1.963175
 H         3.000045        -0.832688        -1.386159
 H         3.266400         1.821971        -2.039204
 H         0.345872        -0.630281         1.191222
 H        -0.778357         0.392142         0.185234
 H        -0.098022        -1.334873        -0.284168
