19
Iteration:   581charge 0 multiplicity 1
 C         1.333754         3.004868         0.204563
 C         2.006165         1.726562         0.058690
 C         2.942357         1.119460         1.059969
 O         3.668665         0.171634         0.332204
 C         2.696056        -0.044810        -0.718989
 C         2.521287         1.343565        -1.358237
 O         1.168878         1.076322        -1.829408
 C         1.230578         0.426652        -0.427104
 C         0.080477        -0.248119         0.304775
 H         0.759429         3.045125         1.112324
 H         2.136244         3.855418         0.121701
 H         0.664819         3.146856        -0.771906
 H         3.584681         1.884408         1.506461
 H         2.469648         0.540709         2.049611
 H         2.873963        -0.960242        -1.310189
 H         3.116455         2.127382        -1.944791
 H         0.308237        -0.097204         1.376798
 H        -0.943978         0.135658         0.075831
 H        -0.012199        -1.395564         0.066472
