19
Iteration:  2700
 C         1.266851         3.118726         0.224930
 C         1.924224         1.765182        -0.017269
 C         2.979832         1.277117         1.072964
 O         3.600208         0.056127         0.349335
 C         2.669228        -0.056627        -0.690035
 C         2.511196         1.350056        -1.344618
 O         1.179841         0.924204        -1.819029
 C         1.301661         0.436064        -0.365721
 C         0.173382        -0.232056         0.235955
 H         0.821883         3.113453         1.176535
 H         2.025010         3.899645        -0.004390
 H         0.458628         3.314527        -0.671408
 H         3.862767         1.958663         1.323019
 H         2.640792         0.921554         2.062846
 H         2.937258        -0.985727        -1.189019
 H         3.372084         1.827232        -1.937068
 H         0.275410        -0.479737         1.252183
 H        -0.744331         0.317144         0.037863
 H         0.033343        -1.291797        -0.116020
