19
Iteration:  4740
 C         1.236325         3.048167         0.290246
 C         1.919073         1.709744         0.033050
 C         3.076029         1.316417         0.981424
 O         3.527279         0.064252         0.497861
 C         2.702767        -0.057278        -0.745042
 C         2.581812         1.381360        -1.299999
 O         1.273345         0.961007        -1.841011
 C         1.197817         0.440238        -0.452354
 C         0.096799        -0.279589         0.142083
 H         0.768661         2.924888         1.263011
 H         2.050828         3.746879         0.244477
 H         0.553423         3.336094        -0.581734
 H         3.863001         2.066549         1.012876
 H         2.711724         1.431772         2.066813
 H         2.952629        -0.950188        -1.302822
 H         3.335898         1.914884        -1.856844
 H         0.467941        -0.712778         1.059835
 H        -0.715725         0.409096         0.392018
 H        -0.444443        -1.100897        -0.384197
