19
Iteration:  4452charge 0 multiplicity 1
 C         1.238697         2.961520         0.246504
 C         1.986839         1.727448         0.056996
 C         2.994572         1.281848         1.071483
 O         3.624369         0.043594         0.422633
 C         2.798819        -0.015656        -0.649663
 C         2.511607         1.350070        -1.387520
 O         1.231262         1.010871        -1.822337
 C         1.208709         0.476975        -0.442489
 C         0.046824        -0.223790         0.161698
 H         0.536734         2.984985         1.163645
 H         1.792477         3.835870         0.329252
 H         0.568262         3.082933        -0.626599
 H         3.824644         1.922134         1.214984
 H         2.567499         0.848197         1.999018
 H         3.047213        -0.996502        -1.261236
 H         3.211860         1.927651        -2.060257
 H         0.346317        -0.538003         1.199634
 H        -0.677102         0.587494         0.047883
 H        -0.254527        -1.044385        -0.477364
