19
Iteration:   312
 C         1.286511         3.082797         0.253372
 C         1.997010         1.733392         0.126925
 C         2.990347         1.212088         1.162963
 O         3.648914         0.164943         0.364570
 C         2.852300        -0.039438        -0.753757
 C         2.459643         1.366892        -1.364740
 O         1.155150         0.828751        -1.825588
 C         1.294175         0.317290        -0.447277
 C         0.031671        -0.097743         0.152589
 H         0.839186         3.284514         1.245537
 H         1.832800         3.903854        -0.095295
 H         0.340746         2.914347        -0.421007
 H         3.621044         2.012534         1.553234
 H         2.549816         0.627302         1.987633
 H         3.104025        -0.858795        -1.450876
 H         2.969553         2.025540        -2.167313
 H         0.190807        -0.405689         1.199644
 H        -0.660024         0.750101         0.155448
 H        -0.502570        -0.879627        -0.375444
