19
Iteration:  3824charge 0 multiplicity 1
 C         1.238308         3.060130         0.298034
 C         2.126510         1.786986        -0.011737
 C         3.148336         1.424107         0.969757
 O         3.393668         0.014715         0.494090
 C         2.666445        -0.127972        -0.703983
 C         2.561445         1.303286        -1.338850
 O         1.164109         1.047827        -1.783909
 C         1.254316         0.518929        -0.408062
 C         0.132687        -0.398793         0.106392
 H         0.619723         2.793446         1.118666
 H         1.997649         3.795254         0.635724
 H         0.625846         3.512054        -0.564159
 H         4.049473         2.053177         0.869535
 H         2.691987         1.553286         1.939689
 H         2.972581        -1.103853        -1.206159
 H         3.080162         1.864254        -2.073081
 H         0.408816        -0.773841         1.186776
 H        -0.952951        -0.084436         0.158541
 H         0.122992        -1.225553        -0.547520
