19
Iteration:  4171
 C         1.286181         3.093324         0.198359
 C         1.990598         1.736032         0.095987
 C         2.970983         1.199003         1.070276
 O         3.638989         0.148466         0.503074
 C         2.695099        -0.074120        -0.729855
 C         2.567687         1.321543        -1.469966
 O         1.118503         1.032874        -1.746441
 C         1.230114         0.488032        -0.405274
 C         0.161164        -0.328096         0.115241
 H         0.932276         3.331419         1.170156
 H         1.975553         3.898151        -0.015382
 H         0.555312         3.053049        -0.633293
 H         3.745610         1.869444         1.479934
 H         2.361388         0.826912         1.924478
 H         2.802276        -1.075518        -1.294098
 H         3.114680         1.675498        -2.299719
 H         0.457801        -0.764070         1.171813
 H        -0.723703         0.367792         0.244149
 H        -0.079424        -1.124162        -0.529067
