19
Iteration:  1587
 C         1.298640         3.060405         0.127701
 C         1.990717         1.744482         0.086104
 C         2.942606         1.266407         1.120941
 O         3.652432         0.221119         0.355670
 C         2.772329        -0.032764        -0.695785
 C         2.535238         1.229981        -1.445132
 O         1.210398         0.896050        -1.783714
 C         1.247382         0.426350        -0.333240
 C        -0.008945        -0.234093         0.224306
 H         0.578930         3.212027         0.993919
 H         2.079355         3.886500         0.275843
 H         0.716959         3.199005        -0.709430
 H         3.677352         2.125213         1.381338
 H         2.534069         0.873049         2.044393
 H         2.951268        -0.924832        -1.165293
 H         3.205672         1.674772        -2.234376
 H         0.428674        -0.988464         0.954308
 H        -0.783120         0.324510         0.782903
 H        -0.443510        -0.603143        -0.677072
