19
Iteration:   684
 C         1.223124         3.013086         0.364060
 C         2.058686         1.797693        -0.043223
 C         3.112725         1.325344         0.952979
 O         3.461507        -0.008627         0.467610
 C         2.655610        -0.006725        -0.692159
 C         2.519383         1.327088        -1.405238
 O         1.219743         0.954614        -1.884839
 C         1.234005         0.549652        -0.407977
 C         0.187508        -0.274492         0.235991
 H         0.775881         2.683731         1.413953
 H         1.689978         3.975600         0.466300
 H         0.389000         3.039199        -0.325581
 H         4.043287         1.909140         0.954012
 H         2.614294         1.294055         2.003229
 H         2.765499        -1.013001        -1.181614
 H         3.221825         1.789864        -2.055787
 H         0.714347        -1.061814         0.886690
 H        -0.481074         0.425142         0.768522
 H        -0.444119        -0.773870        -0.496068
