19
Iteration:   330
 C         1.287087         3.084605         0.238631
 C         2.011530         1.772065         0.082816
 C         3.040396         1.195137         1.100266
 O         3.706241         0.165134         0.369521
 C         2.803577         0.000766        -0.693014
 C         2.439749         1.369870        -1.401641
 O         1.110316         0.808986        -1.731949
 C         1.293296         0.411547        -0.327815
 C        -0.026583        -0.202539         0.058139
 H         0.875627         3.163399         1.229224
 H         2.107016         3.897652         0.190158
 H         0.568838         3.312841        -0.486309
 H         3.904894         1.842801         1.543723
 H         2.397613         0.892299         1.928869
 H         3.069822        -0.911940        -1.393235
 H         3.100790         1.891923        -2.131673
 H        -0.163025        -0.510824         1.094227
 H        -0.728753         0.504756        -0.374448
 H        -0.299727        -1.067485        -0.667708
