19
Iteration:  2288charge 0 multiplicity 1
 C         1.247097         2.979395         0.246392
 C         1.990671         1.738962         0.038447
 C         3.074459         1.293639         1.035888
 O         3.617599         0.155440         0.449075
 C         2.789025        -0.034006        -0.747624
 C         2.534383         1.272215        -1.439042
 O         1.157131         0.873541        -1.740517
 C         1.246129         0.438941        -0.401826
 C         0.041259        -0.151137         0.159024
 H         0.516491         2.991548         1.095907
 H         1.946151         3.928534         0.145618
 H         0.562877         3.071205        -0.562659
 H         3.801118         2.077898         1.294314
 H         2.627638         1.032522         2.094961
 H         2.921761        -0.968610        -1.206434
 H         3.085971         1.898785        -2.108854
 H         0.303192        -0.328896         1.209201
 H        -0.766512         0.670555         0.112197
 H        -0.383127        -1.115474        -0.288686
