19
Iteration:   250
 C         1.166292         3.031542         0.218767
 C         2.056460         1.825312        -0.005337
 C         3.194579         1.375547         0.931757
 O         3.304076        -0.071931         0.615326
 C         2.714584        -0.042553        -0.686987
 C         2.576778         1.405408        -1.420763
 O         1.126919         0.938468        -1.805919
 C         1.329859         0.564613        -0.466512
 C         0.239431        -0.311447         0.182373
 H         0.511017         2.610134         1.049267
 H         1.491570         3.975010         0.664283
 H         0.500387         3.149550        -0.637255
 H         4.121824         1.910536         0.841077
 H         2.899430         1.252815         2.037523
 H         2.932983        -0.872580        -1.208615
 H         3.163193         1.817215        -2.151301
 H         0.700440        -0.914764         1.121424
 H        -0.596635         0.217000         0.692195
 H         0.117873        -1.007236        -0.579869
