19
Iteration:   260
 C         1.075992         2.969771         0.276099
 C         2.097888         1.866896        -0.033587
 C         3.200385         1.333893         1.006714
 O         3.328344        -0.013374         0.569062
 C         2.670676        -0.026372        -0.677700
 C         2.608950         1.333923        -1.458548
 O         1.185906         0.988060        -1.843529
 C         1.274629         0.478222        -0.467508
 C         0.267739        -0.276487         0.210465
 H         0.509375         2.783613         1.233422
 H         1.668859         3.868201         0.349696
 H         0.368904         3.156767        -0.578428
 H         4.098302         1.871026         0.977882
 H         2.850456         1.363061         2.116933
 H         2.674907        -0.887163        -1.226951
 H         3.220808         1.761288        -2.214579
 H         0.928689        -0.810705         1.074544
 H        -0.588602         0.357306         0.563273
 H        -0.237339        -1.033633        -0.358744
