19
Iteration:  1585
 C         1.295223         3.048158         0.132835
 C         1.988420         1.737194         0.092034
 C         2.934852         1.254485         1.123058
 O         3.655599         0.242218         0.352820
 C         2.768035        -0.018323        -0.691033
 C         2.541597         1.207699        -1.442730
 O         1.212324         0.894397        -1.782780
 C         1.254354         0.439984        -0.327662
 C        -0.029359        -0.238072         0.219025
 H         0.624567         3.165065         0.937927
 H         2.092532         3.833885         0.286059
 H         0.703202         3.356295        -0.786949
 H         3.712550         2.096389         1.366220
 H         2.598234         0.827931         2.015503
 H         2.989102        -0.977202        -1.177947
 H         3.215960         1.743713        -2.319415
 H         0.458826        -0.982015         0.990126
 H        -0.746403         0.366795         0.807655
 H        -0.487694        -0.607692        -0.688088
