19
Iteration:  4772charge 0 multiplicity 1
 C         1.137770         2.950067         0.332492
 C         2.033258         1.855035        -0.014353
 C         3.132965         1.299917         1.084357
 O         3.412820         0.018861         0.610256
 C         2.672803        -0.081931        -0.833556
 C         2.543889         1.356086        -1.505775
 O         1.233316         0.947847        -1.847278
 C         1.391065         0.495469        -0.430453
 C         0.175736        -0.194485         0.153025
 H         0.580645         2.862160         1.308628
 H         1.719070         3.867768         0.364158
 H         0.209228         2.951631        -0.421410
 H         4.094841         1.836809         1.179873
 H         2.509245         1.299776         2.054363
 H         2.949295        -1.071290        -1.132690
 H         3.108346         1.951161        -2.240337
 H         0.442011        -0.690043         1.119434
 H        -0.630845         0.515533         0.449008
 H        -0.284816        -0.970826        -0.501873
