19
Iteration:   155charge 0 multiplicity 1
 C         1.218590         3.013999         0.256837
 C         1.981135         1.747508         0.024634
 C         2.981364         1.319788         1.064763
 O         3.641419         0.090246         0.460736
 C         2.789542        -0.025750        -0.703318
 C         2.495275         1.357088        -1.380091
 O         1.212297         0.874700        -1.836256
 C         1.260450         0.384940        -0.460968
 C         0.048114        -0.173315         0.186414
 H         1.152349         3.241398         1.330656
 H         1.769360         3.892921        -0.221965
 H         0.256177         2.964935        -0.134588
 H         3.804474         2.036506         1.382995
 H         2.412195         0.998849         1.871751
 H         3.131720        -0.908740        -1.269987
 H         3.088501         1.897655        -2.160078
 H         0.371449        -0.202338         1.186553
 H        -0.767345         0.536256         0.135976
 H        -0.086901        -1.210682        -0.157124
