19
Iteration:  2254
 C         1.172837         2.996534         0.164345
 C         1.975895         1.728468        -0.018164
 C         3.072057         1.251357         1.062286
 O         3.631317         0.132562         0.441661
 C         2.753724        -0.012864        -0.817063
 C         2.575798         1.298461        -1.349291
 O         1.210774         0.900879        -1.816221
 C         1.257351         0.469130        -0.347879
 C         0.034682        -0.177692         0.275204
 H         0.666176         3.044875         1.109166
 H         1.909982         3.953428         0.137570
 H         0.574370         3.087406        -0.712382
 H         3.834638         1.983401         1.343449
 H         2.473665         0.844213         1.997279
 H         2.793669        -0.872924        -1.268412
 H         3.127078         1.966912        -1.955752
 H         0.358132        -0.516458         1.235573
 H        -0.756873         0.624529         0.486528
 H        -0.473129        -1.111442        -0.199666
