19
Iteration:  3667
 C         1.282000         3.012771         0.294545
 C         2.068075         1.811261         0.053704
 C         3.095055         1.353126         0.976223
 O         3.497697         0.065162         0.528075
 C         2.691689        -0.096329        -0.730885
 C         2.532311         1.320934        -1.418693
 O         1.175282         1.048556        -1.808763
 C         1.309454         0.423410        -0.375792
 C         0.052540        -0.331725         0.146645
 H         0.495473         2.771911         0.971853
 H         2.017984         3.857792         0.666886
 H         0.788464         3.310382        -0.576958
 H         3.897493         2.078011         0.811923
 H         2.732604         1.374308         2.017611
 H         2.692289        -0.962994        -1.400379
 H         3.146454         1.728974        -2.279196
 H         0.114301        -0.798063         1.103632
 H        -0.784063         0.381572         0.150423
 H        -0.158429        -1.297901        -0.500197
