19
Iteration:   356
 C         1.308820         3.064783         0.335552
 C         2.012760         1.750519         0.095327
 C         3.132639         1.373917         1.005978
 O         3.597139         0.132834         0.405391
 C         2.701525        -0.077262        -0.652353
 C         2.520918         1.251063        -1.350590
 O         1.150354         1.020237        -1.832422
 C         1.190436         0.422037        -0.429247
 C         0.005095        -0.366394         0.089111
 H         0.644577         3.086126         1.212313
 H         2.059348         3.765099         0.477777
 H         0.725677         3.401433        -0.594710
 H         4.007351         2.015573         0.902070
 H         2.773328         1.414763         2.012302
 H         2.878156        -0.977510        -1.143974
 H         3.357141         1.794012        -1.876661
 H         0.159707        -0.469097         1.110948
 H        -0.948211        -0.013189        -0.228009
 H        -0.003445        -1.306743        -0.347480
