19
Iteration:  2518charge 0 multiplicity 1
 C         1.332098         3.062607         0.198192
 C         2.021074         1.774840         0.074499
 C         3.068893         1.335358         1.059233
 O         3.536256         0.103213         0.429118
 C         2.798216        -0.069611        -0.728316
 C         2.478987         1.336313        -1.425848
 O         1.134443         0.930950        -1.759046
 C         1.271207         0.411855        -0.465852
 C         0.054123        -0.297370         0.214953
 H         0.723442         3.027433         1.186898
 H         2.202597         3.907707         0.111333
 H         0.543976         3.233243        -0.510185
 H         3.790716         2.088834         1.399471
 H         2.561955         1.081823         2.055242
 H         2.923467        -1.010637        -1.256493
 H         2.939852         2.063722        -2.114790
 H         0.299405        -0.523659         1.322039
 H        -0.758343         0.413448        -0.066018
 H        -0.170544        -1.296575        -0.155252
