19
Iteration:  3886
 C         1.197878         2.957037         0.278691
 C         2.024154         1.691404         0.105703
 C         2.894684         1.254138         1.126519
 O         3.661324         0.167679         0.364396
 C         2.785975        -0.090581        -0.730671
 C         2.587570         1.307966        -1.390517
 O         1.159957         0.947025        -1.835929
 C         1.291587         0.358674        -0.468005
 C         0.066224        -0.079139         0.204983
 H         0.883710         3.302831         1.264750
 H         1.834880         3.917390         0.099563
 H         0.398847         3.056597        -0.395728
 H         3.754947         1.877186         1.373488
 H         2.571822         0.816861         2.100201
 H         3.030367        -0.911856        -1.356278
 H         3.063180         1.903689        -2.183960
 H         0.179056        -0.422843         1.191602
 H        -0.465739         0.842156         0.193604
 H        -0.481279        -0.834167        -0.448573
