19
Iteration:  3793charge 0 multiplicity 1
 C         1.292438         3.144544         0.232696
 C         1.986273         1.783517         0.089578
 C         3.156167         1.322515         1.080990
 O         3.473769         0.018528         0.483606
 C         2.717802        -0.072556        -0.760436
 C         2.462775         1.360439        -1.334580
 O         1.127772         0.962623        -1.828309
 C         1.259479         0.429916        -0.426520
 C         0.148888        -0.363987         0.100052
 H         0.650416         3.355794         1.127487
 H         2.075865         3.742172         0.569784
 H         0.923269         3.510093        -0.796390
 H         3.954920         2.001896         1.098027
 H         2.772376         1.323495         2.072370
 H         3.051599        -1.026889        -1.311369
 H         3.060857         1.994187        -1.998553
 H         0.447447        -0.768872         1.104989
 H        -0.768762         0.268963         0.192428
 H        -0.004432        -1.174511        -0.506416
