19
Iteration:  2274
 C         1.180237         3.050307         0.179701
 C         2.009133         1.739270         0.081860
 C         2.998023         1.255611         1.079236
 O         3.704862         0.125394         0.338041
 C         2.772220        -0.087414        -0.607948
 C         2.486407         1.332037        -1.367586
 O         1.167131         0.910013        -1.842094
 C         1.312140         0.381334        -0.419900
 C         0.038442        -0.125770         0.232006
 H         0.677852         3.107207         1.115758
 H         1.869265         4.050659         0.307046
 H         0.452612         3.060164        -0.762754
 H         3.801626         1.976758         1.246851
 H         2.547402         0.849514         2.016809
 H         3.040718        -0.903604        -1.220571
 H         3.147362         1.712432        -2.160328
 H         0.154274        -0.376618         1.247299
 H        -0.716658         0.655059         0.279531
 H        -0.396319        -1.063289        -0.318530
