19
Iteration:  4805
 C         1.142581         3.003946         0.237908
 C         2.007195         1.756829         0.037226
 C         3.042730         1.293275         1.025270
 O         3.586826         0.058927         0.496318
 C         2.720065        -0.132188        -0.757055
 C         2.602504         1.364815        -1.328348
 O         1.239826         1.035921        -1.870336
 C         1.250881         0.419450        -0.471858
 C         0.043427        -0.227315         0.232644
 H         0.587811         2.994435         1.203404
 H         1.735355         3.959232         0.275035
 H         0.506226         3.268410        -0.704025
 H         3.940725         1.919789         1.134915
 H         2.681831         1.061702         2.071860
 H         2.973977        -1.061046        -1.352686
 H         3.228588         2.024115        -1.931639
 H         0.483733        -0.608443         1.184402
 H        -0.691632         0.540598         0.482476
 H        -0.301050        -1.180864        -0.274659
