19
Iteration:  2969
 C         1.221078         2.996295         0.204034
 C         2.020461         1.783928         0.003869
 C         3.019709         1.257209         1.036982
 O         3.589833         0.069751         0.491286
 C         2.712346        -0.028483        -0.650092
 C         2.480874         1.355756        -1.438869
 O         1.133165         0.883117        -1.794432
 C         1.343212         0.450033        -0.405570
 C         0.169646        -0.142111         0.202989
 H         0.751515         3.103026         1.306824
 H         1.955977         3.811651         0.120629
 H         0.449565         3.046305        -0.583675
 H         3.845123         2.003720         1.230321
 H         2.405256         0.949040         1.955436
 H         2.941806        -0.975198        -1.305962
 H         3.044399         1.910962        -2.221551
 H         0.346580        -0.697580         1.119770
 H        -0.630222         0.619066         0.243502
 H        -0.201182        -0.908888        -0.633737
