19
Iteration:    31charge 0 multiplicity 1
 C         1.400183         3.173724         0.183295
 C         1.969106         1.729077         0.026385
 C         2.910663         1.203729         1.107236
 O         3.705523         0.301212         0.425100
 C         2.836062        -0.029261        -0.685132
 C         2.422835         1.321334        -1.429597
 O         1.158062         0.775261        -1.718022
 C         1.282390         0.389837        -0.416460
 C        -0.024131        -0.292325         0.135626
 H         0.484521         3.163333         0.820543
 H         2.103239         3.865289         0.578746
 H         1.023684         3.631256        -0.846192
 H         3.613621         2.011133         1.541701
 H         2.410434         0.763447         1.919962
 H         3.132943        -1.040400        -1.147482
 H         2.748184         2.019726        -2.125937
 H         0.429840        -0.902366         1.023836
 H        -0.883700         0.362998         0.327897
 H        -0.357191        -0.870985        -0.642605
