19
Iteration:   310charge 0 multiplicity 1
 C         1.274647         3.068524         0.245156
 C         1.985625         1.725680         0.139788
 C         2.977043         1.207597         1.153172
 O         3.652679         0.159997         0.366885
 C         2.850492        -0.047179        -0.748136
 C         2.465256         1.377716        -1.370670
 O         1.167135         0.836385        -1.829191
 C         1.284262         0.331399        -0.461022
 C         0.037374        -0.100499         0.186392
 H         0.895293         3.235235         1.231438
 H         1.838585         3.936310        -0.115329
 H         0.363335         2.937248        -0.373120
 H         3.657347         2.057477         1.550164
 H         2.543948         0.707802         1.970166
 H         3.139217        -0.897910        -1.503977
 H         3.018960         2.026676        -2.164597
 H         0.238013        -0.399121         1.111863
 H        -0.631232         0.727466         0.136466
 H        -0.587695        -0.856293        -0.365103
