19
Iteration:     3
 C         1.211856         3.035902         0.199089
 C         1.994464         1.767886         0.029425
 C         3.048841         1.365761         1.028087
 O         3.541219         0.108045         0.474589
 C         2.753096        -0.027664        -0.669667
 C         2.521370         1.318383        -1.373742
 O         1.172423         0.903983        -1.812658
 C         1.308862         0.428644        -0.422499
 C         0.116884        -0.301647         0.191506
 H         0.636915         3.033576         1.125705
 H         1.917469         3.913714         0.221535
 H         0.561518         3.191167        -0.593340
 H         3.863228         2.042025         1.151301
 H         2.616104         1.150335         2.087789
 H         3.012958        -0.869226        -1.232584
 H         3.205345         1.853607        -2.105885
 H         0.353723        -0.633591         1.138938
 H        -0.736972         0.403578         0.185026
 H        -0.230511        -1.144956        -0.536428
