19
Iteration:  3124
 C         1.213363         3.112451         0.218482
 C         2.000368         1.766264         0.016021
 C         3.090558         1.237172         1.088725
 O         3.468355         0.044282         0.492280
 C         2.723012        -0.054803        -0.725629
 C         2.612674         1.369909        -1.412613
 O         1.138097         0.879586        -1.821302
 C         1.291170         0.533498        -0.443956
 C         0.168238        -0.256291         0.203465
 H         0.806891         3.216433         1.263187
 H         1.849063         3.885716         0.068326
 H         0.315281         3.149719        -0.417064
 H         3.987353         1.904760         0.970728
 H         2.886939         1.165081         2.220819
 H         2.836526        -1.012572        -1.083848
 H         2.964094         2.089611        -2.148876
 H         0.386323        -0.572868         1.197811
 H        -0.781367         0.252339         0.086031
 H        -0.065924        -1.179664        -0.409387
