19
Iteration:  2933
 C         1.349005         3.047034         0.208207
 C         1.947030         1.725131         0.014037
 C         3.070521         1.276283         1.003070
 O         3.691067         0.149275         0.451882
 C         2.759831        -0.055136        -0.625646
 C         2.488918         1.385059        -1.322548
 O         1.142792         0.880276        -1.845040
 C         1.164048         0.471685        -0.448693
 C        -0.011252        -0.302622         0.181973
 H         0.726194         3.105548         1.114472
 H         2.199468         3.842934         0.281506
 H         0.781584         3.398614        -0.603280
 H         3.806645         2.147547         1.195575
 H         2.685938         1.141402         2.025549
 H         2.990760        -0.870586        -1.208539
 H         3.217405         1.841783        -1.972170
 H         0.231195        -0.522993         1.302587
 H        -0.959286         0.307124         0.177645
 H        -0.156829        -1.254655        -0.332880
