19
Iteration:  2067charge 0 multiplicity 1
 C         1.134189         2.966590         0.308812
 C         2.018985         1.822998        -0.056731
 C         3.097611         1.331478         0.913904
 O         3.430052         0.013177         0.602049
 C         2.769813        -0.053952        -0.664878
 C         2.574526         1.354007        -1.434393
 O         1.143075         0.902279        -1.857457
 C         1.281564         0.489495        -0.433170
 C         0.188078        -0.222777         0.243390
 H         0.671502         2.771527         1.283323
 H         1.884073         3.924829         0.501674
 H         0.459137         3.246366        -0.540840
 H         4.025270         1.902449         0.760942
 H         2.852438         1.512525         2.038984
 H         3.153550        -0.865270        -1.400246
 H         3.252023         1.846425        -2.263926
 H         0.399794        -0.547936         1.363234
 H        -0.582807         0.640840         0.113121
 H         0.011718        -1.157063        -0.471979
