19
Iteration:  3554charge 0 multiplicity 1
 C         1.155234         2.974006         0.345115
 C         2.099473         1.794537         0.012137
 C         3.188902         1.384606         0.936617
 O         3.492322        -0.002918         0.538602
 C         2.678401        -0.054777        -0.666799
 C         2.581423         1.338796        -1.382771
 O         1.182039         0.966400        -1.897065
 C         1.288059         0.499416        -0.415019
 C         0.017476        -0.262425         0.161758
 H         0.557446         2.905738         1.290973
 H         1.510366         4.012944         0.180467
 H         0.469011         2.909768        -0.552288
 H         4.173585         1.887306         0.978586
 H         2.830715         1.284700         1.961199
 H         2.835987        -0.834106        -1.401017
 H         3.372075         1.766001        -1.948603
 H         0.418140        -0.732510         1.135079
 H        -0.728555         0.521001         0.432883
 H        -0.254130        -1.045445        -0.416838
