19
Iteration:  3681charge 0 multiplicity 1
 C         1.209465         2.991723         0.300226
 C         1.975021         1.711379         0.006302
 C         3.177221         1.413676         0.945790
 O         3.430387        -0.014031         0.465583
 C         2.729019        -0.073372        -0.675473
 C         2.552714         1.318234        -1.340170
 O         1.193124         1.030902        -1.842074
 C         1.262804         0.425863        -0.390760
 C         0.111847        -0.244878         0.149884
 H         0.564933         2.848780         1.183326
 H         1.879686         3.891169         0.657629
 H         0.555931         3.407308        -0.588122
 H         4.056270         1.977622         0.699815
 H         3.054802         1.365294         2.026943
 H         3.072779        -0.965299        -1.096587
 H         3.249191         2.015826        -1.785148
 H         0.378679        -0.562824         1.197524
 H        -0.732992         0.416853         0.190657
 H        -0.196181        -0.999448        -0.596183
