19
Iteration:  4422
 C         1.210872         2.984520         0.300928
 C         2.072813         1.789486         0.066876
 C         3.035324         1.271349         1.098781
 O         3.665374         0.130188         0.406821
 C         2.732607        -0.088680        -0.664123
 C         2.509621         1.313062        -1.368969
 O         1.198224         0.930720        -1.787332
 C         1.196364         0.453004        -0.471990
 C         0.049438        -0.165777         0.073924
 H         0.281438         2.922909         0.905710
 H         1.737997         3.867207         0.682130
 H         0.621499         3.087015        -0.690877
 H         3.898829         1.905707         1.315700
 H         2.604565         0.920085         2.036339
 H         3.066325        -0.933887        -1.271594
 H         3.226181         1.713855        -2.131295
 H         0.156590        -0.714325         1.078821
 H        -0.741429         0.632122         0.181904
 H        -0.264961        -0.875276        -0.625355
