19
Iteration:  4261
 C         1.183509         3.007046         0.352203
 C         1.999828         1.768277         0.012741
 C         3.085451         1.342652         1.038610
 O         3.622395         0.063573         0.495838
 C         2.693344        -0.095577        -0.680955
 C         2.545544         1.291602        -1.444187
 O         1.213339         0.940370        -1.845634
 C         1.308279         0.541953        -0.447745
 C         0.031615        -0.197564         0.133429
 H         0.487301         2.654673         1.062659
 H         1.918359         3.730255         0.831361
 H         0.542360         3.303253        -0.505021
 H         3.916355         2.070183         1.195747
 H         2.636831         1.129411         2.049911
 H         2.913370        -1.055831        -1.043931
 H         2.858696         1.797076        -2.313215
 H         0.220672        -0.747481         1.100619
 H        -0.946918         0.362473         0.085717
 H        -0.000675        -1.022976        -0.619915
