19
Iteration:  4906
 C         1.248412         3.080271         0.314547
 C         1.946206         1.737542         0.069807
 C         3.103760         1.332108         0.977097
 O         3.453041        -0.043577         0.584565
 C         2.729298        -0.037771        -0.787217
 C         2.528458         1.429904        -1.367691
 O         1.218984         0.978809        -1.900454
 C         1.268202         0.391360        -0.452084
 C         0.143799        -0.303027         0.192703
 H         0.758360         3.243074         1.276057
 H         1.907649         3.994445         0.023137
 H         0.397589         3.257816        -0.375527
 H         3.966703         1.971838         0.839677
 H         2.880176         1.494106         2.066144
 H         3.068150        -0.958021        -1.322544
 H         3.112838         2.086744        -1.906506
 H         0.506274        -0.567598         1.132768
 H        -0.731116         0.363930         0.234189
 H        -0.158318        -1.240938        -0.459925
