19
Iteration:   484charge 0 multiplicity 1
 C         1.263456         3.030629         0.291721
 C         1.992682         1.763057         0.027284
 C         3.160951         1.341873         1.015056
 O         3.624626         0.038775         0.425740
 C         2.780462        -0.055932        -0.700748
 C         2.472524         1.420356        -1.372566
 O         1.120728         0.874954        -1.780354
 C         1.309082         0.410075        -0.296906
 C        -0.045872        -0.228980         0.050199
 H         0.804025         2.899201         1.252355
 H         1.958000         3.897241         0.420598
 H         0.471316         3.198853        -0.515062
 H         3.953075         2.095042         1.111619
 H         2.792488         1.197747         2.058220
 H         2.948920        -0.912407        -1.295554
 H         3.084124         2.059399        -2.069031
 H        -0.044129        -1.031051         0.758234
 H        -0.562800         0.555122         0.627727
 H        -0.445421        -0.576488        -1.023862
