19
Iteration:    38charge 0 multiplicity 1
 C         1.401387         3.139822         0.167905
 C         1.935967         1.756403         0.077943
 C         2.942800         1.221634         1.085316
 O         3.719645         0.301747         0.387211
 C         2.877372        -0.030744        -0.610869
 C         2.415099         1.318743        -1.417117
 O         1.189289         0.776791        -1.797364
 C         1.155960         0.451696        -0.383807
 C        -0.017951        -0.312675         0.134979
 H         0.513569         3.238395         0.793035
 H         2.208753         3.750267         0.672606
 H         1.212760         3.535970        -0.837057
 H         3.582025         2.004023         1.511138
 H         2.358718         0.559787         1.944329
 H         3.175484        -0.961503        -1.170820
 H         2.912317         2.039337        -2.210382
 H         0.246391        -0.972916         1.024522
 H        -0.773078         0.360059         0.621084
 H        -0.420791        -1.163852        -0.621936
