19
Iteration:  2026charge 0 multiplicity 1
 C         1.280607         3.111788         0.201565
 C         1.946846         1.739803         0.038919
 C         3.120954         1.371750         1.049472
 O         3.585525         0.129234         0.467752
 C         2.697108        -0.046880        -0.666510
 C         2.538558         1.297534        -1.341300
 O         1.110514         0.927366        -1.825574
 C         1.267256         0.441243        -0.434653
 C         0.078081        -0.351180         0.174346
 H         0.522809         3.198209         1.031145
 H         2.165755         3.768167         0.205270
 H         0.812222         3.433131        -0.648601
 H         3.868889         2.160600         1.107928
 H         2.705019         1.181244         2.037814
 H         3.035242        -0.940410        -1.216732
 H         3.328848         1.611643        -2.025621
 H         0.409068        -0.873639         0.986639
 H        -0.874811         0.120564         0.370171
 H        -0.184491        -1.150259        -0.564764
