19
Iteration:  2073
 C         1.181702         2.987877         0.307900
 C         2.004388         1.808637         0.000556
 C         3.084071         1.326653         0.956905
 O         3.426128         0.017055         0.600084
 C         2.780066        -0.006095        -0.701467
 C         2.549714         1.291143        -1.455217
 O         1.129707         0.907175        -1.852676
 C         1.344735         0.455174        -0.473355
 C         0.202965        -0.171960         0.225610
 H         0.633631         2.579876         1.186664
 H         1.636805         3.883626         0.407443
 H         0.390853         3.096234        -0.500251
 H         3.977573         1.976246         0.703662
 H         2.849685         1.431176         1.986023
 H         3.122042        -0.893734        -1.189193
 H         3.060874         1.909831        -2.144641
 H         0.434911        -0.403601         1.252584
 H        -0.569454         0.528201         0.101019
 H        -0.123283        -1.015193        -0.273034
