19
Iteration:   449charge 0 multiplicity 1
 C         1.263856         3.015887         0.186986
 C         1.942304         1.687287         0.074684
 C         2.950174         1.222369         1.102978
 O         3.729009         0.159772         0.321730
 C         2.773655        -0.075747        -0.747880
 C         2.531464         1.363204        -1.335470
 O         1.171396         0.984495        -1.811893
 C         1.283793         0.401199        -0.386328
 C         0.021712        -0.180316         0.233356
 H         0.765848         3.059885         1.185417
 H         2.010310         3.929629         0.085076
 H         0.467623         3.167471        -0.532970
 H         3.712219         1.825916         1.441389
 H         2.373592         0.663352         1.966013
 H         3.005348        -1.064603        -1.353659
 H         3.205153         2.005579        -1.923518
 H         0.308269        -1.034056         0.970711
 H        -0.534512         0.682707         0.659697
 H        -0.833464        -0.567031        -0.383138
