19
Iteration:  2135charge 0 multiplicity 1
 C         1.225950         3.045117         0.150612
 C         2.024879         1.743664         0.070034
 C         3.021879         1.248342         1.105072
 O         3.663819         0.173349         0.395983
 C         2.746039        -0.025334        -0.641573
 C         2.519044         1.300811        -1.416183
 O         1.130027         0.895071        -1.773820
 C         1.292665         0.406679        -0.426475
 C         0.068510        -0.228263         0.188929
 H         0.727095         3.327987         1.141044
 H         1.995523         3.938869         0.145917
 H         0.606438         3.121538        -0.637919
 H         3.823902         1.908923         1.309665
 H         2.527940         0.921543         2.071763
 H         3.035830        -0.788190        -1.252418
 H         2.939450         1.878685        -2.179378
 H         0.005309        -0.526077         1.205560
 H        -0.814060         0.581373         0.111011
 H        -0.248625        -1.172648        -0.416504
