19
Iteration:  3904
 C         1.184691         2.994451         0.231736
 C         2.019416         1.724471         0.060553
 C         3.053998         1.183870         1.114549
 O         3.670286         0.125737         0.408110
 C         2.784684        -0.019507        -0.715159
 C         2.517166         1.271557        -1.439489
 O         1.192531         0.940166        -1.828131
 C         1.252227         0.535351        -0.392563
 C         0.026233        -0.110306         0.147712
 H         0.723753         2.903284         1.355447
 H         1.693352         3.921171         0.142189
 H         0.233324         3.044443        -0.384063
 H         3.675196         1.923339         1.583607
 H         2.449040         0.746841         1.907283
 H         2.975531        -1.021512        -1.084597
 H         3.293013         1.713472        -2.167709
 H         0.318920        -0.585704         1.113002
 H        -0.842385         0.560637         0.398747
 H        -0.294195        -1.033004        -0.420573
