19
Iteration:  4520charge 0 multiplicity 1
 C         1.301761         3.038469         0.284977
 C         2.030947         1.807447         0.018466
 C         3.096124         1.326772         1.125417
 O         3.468068         0.049270         0.485613
 C         2.644351        -0.003469        -0.611054
 C         2.593840         1.292235        -1.348144
 O         1.119535         1.021468        -1.900339
 C         1.221621         0.490542        -0.506696
 C         0.207795        -0.377452         0.074605
 H         0.849986         3.061337         1.322646
 H         1.891087         3.986089         0.275288
 H         0.380749         3.259723        -0.423747
 H         4.011638         1.871854         1.126829
 H         2.552850         1.142350         2.101573
 H         2.882323        -0.894775        -1.161499
 H         3.225132         1.769354        -2.146833
 H         0.468996        -0.899462         1.112424
 H        -0.783395         0.149738         0.222772
 H         0.040102        -1.286330        -0.430429
