19
Iteration:  3391
 C         1.227622         2.986115         0.250756
 C         2.030472         1.724072         0.043049
 C         3.158010         1.343307         1.072280
 O         3.589652         0.089241         0.526447
 C         2.755049        -0.060303        -0.714882
 C         2.512985         1.276278        -1.438916
 O         1.124208         0.994208        -1.830522
 C         1.245243         0.490514        -0.445803
 C         0.014740        -0.240218         0.121060
 H         0.759458         2.810828         1.207443
 H         1.954384         3.870501         0.332752
 H         0.507666         3.231013        -0.485306
 H         3.964497         2.073825         1.050503
 H         2.754549         1.356341         2.137462
 H         2.705145        -1.094342        -1.147848
 H         3.242873         1.730792        -2.070895
 H         0.390386        -0.846112         1.024662
 H        -0.725706         0.502335         0.469125
 H        -0.222863        -1.024325        -0.487523
