19
Iteration:  1853
 C         1.329507         3.102393         0.152239
 C         2.022313         1.779245         0.091998
 C         2.968299         1.258775         1.094862
 O         3.590085         0.191373         0.397191
 C         2.789752         0.021401        -0.730000
 C         2.490620         1.307735        -1.430622
 O         1.143357         0.820411        -1.690948
 C         1.292220         0.412446        -0.364225
 C         0.048986        -0.279607         0.135867
 H         0.677424         3.433396         1.012229
 H         2.026263         3.876025         0.067698
 H         0.811918         3.073876        -0.773408
 H         3.802679         1.903771         1.517898
 H         2.489568         0.834033         1.920799
 H         3.088602        -0.960918        -1.259242
 H         3.012975         1.865375        -2.154889
 H         0.041033        -0.662834         1.165344
 H        -0.663409         0.571953         0.123164
 H        -0.238596        -1.170802        -0.498633
