19
Iteration:  1273
 C         1.375332         3.068972         0.242151
 C         1.988264         1.713925         0.017340
 C         3.076897         1.365151         1.010039
 O         3.700493         0.183750         0.409736
 C         2.697094        -0.023736        -0.624508
 C         2.534550         1.348876        -1.324595
 O         1.095840         0.846419        -1.807268
 C         1.175794         0.424442        -0.407969
 C        -0.014118        -0.337616         0.108512
 H         1.080078         3.245337         1.306415
 H         2.096497         3.820685         0.037490
 H         0.570436         3.207705        -0.430336
 H         3.783815         2.251993         1.199037
 H         2.721745         1.073680         2.000550
 H         2.823682        -1.064704        -1.195650
 H         3.193218         1.860185        -1.917083
 H         0.046964        -0.398493         1.237055
 H        -0.866779         0.326214        -0.131506
 H        -0.113962        -1.345611        -0.182063
