19
Iteration:  2273
 C         1.180846         3.055600         0.174055
 C         2.006234         1.741111         0.081697
 C         2.999604         1.258264         1.086911
 O         3.711412         0.122195         0.335647
 C         2.763845        -0.095031        -0.607814
 C         2.485959         1.336742        -1.364508
 O         1.169038         0.911615        -1.849476
 C         1.307581         0.376358        -0.419398
 C         0.038542        -0.124587         0.242762
 H         0.667589         3.109012         1.112516
 H         1.848441         4.006165         0.307785
 H         0.416956         3.077766        -0.761202
 H         3.806980         1.980170         1.292050
 H         2.549474         0.867839         1.986150
 H         3.073891        -0.937032        -1.286002
 H         3.181013         1.729742        -2.150720
 H         0.134564        -0.392808         1.275063
 H        -0.706909         0.634505         0.271837
 H        -0.361389        -1.018459        -0.335854
