19
Iteration:  3295
 C         1.251361         3.041459         0.220235
 C         2.064392         1.812987         0.019875
 C         3.093014         1.322693         1.018925
 O         3.436086        -0.033830         0.559864
 C         2.727742        -0.025391        -0.727557
 C         2.527372         1.358384        -1.373444
 O         1.204184         1.036822        -1.858674
 C         1.225118         0.442321        -0.450795
 C         0.119372        -0.302290         0.202764
 H         0.825337         2.907337         1.181187
 H         1.757324         4.076491         0.058994
 H         0.456045         2.924373        -0.419661
 H         3.989637         1.981340         0.908560
 H         2.795670         1.211632         2.082571
 H         2.920557        -0.974230        -1.291201
 H         3.069837         1.807180        -2.173064
 H         0.574882        -0.502497         1.203924
 H        -0.805459         0.229298         0.291018
 H         0.149058        -1.326760        -0.163150
