19
Iteration:  2840charge 0 multiplicity 1
 C         1.203611         3.084944         0.215636
 C         1.985630         1.800416         0.011773
 C         3.000510         1.361528         1.019937
 O         3.569025        -0.019976         0.381490
 C         2.802773        -0.098275        -0.680097
 C         2.542743         1.362854        -1.336880
 O         1.229793         0.926601        -1.822837
 C         1.209734         0.446174        -0.438396
 C         0.100866        -0.226587         0.308498
 H         0.666326         3.022633         1.157037
 H         1.712750         3.937357         0.017046
 H         0.413314         3.025522        -0.619073
 H         3.811863         1.970830         1.265412
 H         2.605776         1.101162         2.013022
 H         3.241211        -1.077563        -1.360456
 H         3.106358         1.963947        -2.161632
 H         0.545238        -0.559332         1.189771
 H        -0.547314         0.621035         0.436017
 H        -0.402905        -1.105678        -0.265064
