19
Iteration:   301
 C         1.225575         2.993616         0.237090
 C         1.938335         1.685083         0.070278
 C         2.955604         1.217167         1.087388
 O         3.672714         0.127302         0.398250
 C         2.804805        -0.013811        -0.744735
 C         2.516770         1.371283        -1.362587
 O         1.212292         0.896362        -1.837763
 C         1.274648         0.404139        -0.492741
 C         0.029536        -0.127816         0.255974
 H         1.055485         3.197971         1.308223
 H         1.855561         3.780896        -0.081267
 H         0.240658         3.108074        -0.384954
 H         3.791353         1.887771         1.335822
 H         2.433741         0.939651         2.030075
 H         3.198069        -0.891333        -1.329303
 H         3.203476         2.011588        -2.037102
 H         0.306505        -0.481808         1.251842
 H        -0.562031         0.803307         0.388524
 H        -0.539589        -0.914188        -0.245435
