19
Iteration:  2364charge 0 multiplicity 1
 C         1.274942         3.080073         0.197520
 C         2.062457         1.804781        -0.009614
 C         3.116400         1.372968         1.017480
 O         3.456526         0.036196         0.521224
 C         2.711594        -0.123098        -0.713503
 C         2.516821         1.400223        -1.417940
 O         1.167220         0.963111        -1.787477
 C         1.262087         0.406186        -0.438339
 C         0.131748        -0.350136         0.233561
 H         0.741742         3.291501         1.176093
 H         2.142725         3.922217         0.233068
 H         0.510622         3.259055        -0.532073
 H         3.898873         2.105603         1.121673
 H         2.601213         1.323864         2.019559
 H         2.904226        -0.977626        -1.221728
 H         2.793489         1.958559        -2.295182
 H         0.508802        -0.685754         1.171319
 H        -0.874168         0.088581         0.460440
 H        -0.038804        -1.188326        -0.484158
