19
Iteration:  2570
 C         1.308842         3.100438         0.200311
 C         2.037249         1.798502         0.024452
 C         3.055105         1.290741         1.048460
 O         3.519199         0.074827         0.459969
 C         2.684548        -0.028511        -0.676562
 C         2.492863         1.336304        -1.389136
 O         1.143213         0.945058        -1.849230
 C         1.307083         0.411601        -0.431420
 C         0.108920        -0.326765         0.241401
 H         0.759442         3.284624         1.092860
 H         2.076146         3.923543         0.235918
 H         0.563217         2.999295        -0.620315
 H         3.886972         2.073583         1.276365
 H         2.644710         1.005713         2.057127
 H         2.896986        -0.758521        -1.395572
 H         3.194912         1.880992        -2.087521
 H         0.561843        -0.697498         1.180577
 H        -0.752362         0.336641         0.574687
 H        -0.286457        -1.173804        -0.480210
