19
Iteration:  1417
 C         1.347272         3.073103         0.276023
 C         1.981386         1.715225        -0.023980
 C         3.031896         1.303684         1.072640
 O         3.697504         0.235253         0.391506
 C         2.705369        -0.079645        -0.632015
 C         2.555121         1.291431        -1.367059
 O         1.115667         0.848576        -1.826530
 C         1.210401         0.431601        -0.414966
 C         0.017275        -0.249805         0.165693
 H         0.799501         2.990010         1.138843
 H         2.069767         3.797329         0.296839
 H         0.655197         3.382722        -0.572912
 H         3.664550         2.189694         1.292501
 H         2.565802         1.010280         1.984779
 H         2.916362        -1.035981        -1.024373
 H         3.234161         1.844768        -2.117321
 H         0.084712        -0.469333         1.184916
 H        -0.866218         0.459683         0.125338
 H        -0.233032        -1.157152        -0.449292
