19
Iteration:   802
 C         1.215600         3.032114         0.532121
 C         2.032142         1.796510        -0.017061
 C         3.277483         1.410649         0.810911
 O         3.326730         0.021295         0.561146
 C         2.700055        -0.066026        -0.712672
 C         2.507866         1.388771        -1.400375
 O         1.221399         0.934420        -1.892692
 C         1.277329         0.410675        -0.495713
 C         0.089806        -0.301714         0.199877
 H         0.830639         2.917643         1.551973
 H         1.852671         3.921363         0.524869
 H         0.410532         3.183917        -0.217258
 H         4.157389         1.904603         0.375757
 H         3.175818         1.621101         1.926388
 H         2.957475        -1.013751        -1.286190
 H         3.355129         1.833271        -1.932875
 H         0.138716        -0.372459         1.343001
 H        -0.782878         0.285851        -0.154491
 H         0.004800        -1.444969        -0.016792
