19
Iteration:  1987
 C         1.303377         3.127217         0.103070
 C         2.025758         1.782076         0.108359
 C         3.034870         1.293214         1.153969
 O         3.593027         0.138629         0.446704
 C         2.768354         0.029280        -0.735357
 C         2.526319         1.344224        -1.396651
 O         1.074130         0.867331        -1.779793
 C         1.257753         0.328113        -0.399514
 C         0.089337        -0.289734         0.154316
 H         0.866661         3.459575         1.076208
 H         2.068348         3.885809        -0.086141
 H         0.415926         3.174874        -0.709003
 H         3.954581         1.843245         1.574982
 H         2.456683         0.852606         2.009963
 H         2.965340        -0.821055        -1.300985
 H         3.154968         1.831066        -2.137305
 H         0.404633        -0.904403         1.140199
 H        -0.766750         0.401102         0.358130
 H        -0.183268        -1.009498        -0.634474
