19
Iteration:  3883charge 0 multiplicity 1
 C         1.217505         2.959440         0.253403
 C         2.021821         1.682955         0.095251
 C         2.914493         1.245959         1.101982
 O         3.645548         0.156066         0.368162
 C         2.784517        -0.049179        -0.721588
 C         2.574614         1.330971        -1.358685
 O         1.167665         0.944408        -1.830479
 C         1.296872         0.345570        -0.473094
 C         0.062808        -0.096190         0.203863
 H         0.851248         3.249808         1.373782
 H         1.807523         3.840084         0.109811
 H         0.334522         3.134081        -0.357310
 H         3.706925         1.889794         1.341605
 H         2.548716         0.853124         2.031327
 H         3.058718        -0.904364        -1.300771
 H         3.116658         1.856217        -2.227447
 H         0.126375        -0.415449         1.207085
 H        -0.387382         0.891133         0.196857
 H        -0.558088        -0.859339        -0.377853
