19
Iteration:  3403charge 0 multiplicity 1
 C         1.232529         3.005338         0.260165
 C         2.087398         1.815737         0.013623
 C         3.103737         1.389785         1.023852
 O         3.507289        -0.000478         0.480009
 C         2.670894        -0.054180        -0.660797
 C         2.534282         1.291267        -1.418411
 O         1.199208         1.008087        -1.827997
 C         1.230987         0.464325        -0.379085
 C         0.083562        -0.296576         0.149441
 H         0.770459         2.937670         1.227574
 H         1.781115         4.033391         0.250078
 H         0.456332         3.020120        -0.392316
 H         4.014400         1.981465         0.888699
 H         2.872791         1.293626         2.144289
 H         3.113422        -0.830721        -1.261623
 H         3.105581         1.731990        -2.191007
 H         0.431664        -0.724114         1.120148
 H        -0.856804         0.243448         0.317073
 H        -0.232983        -1.015285        -0.581940
