19
Iteration:  2959charge 0 multiplicity 1
 C         1.278940         3.069330         0.227911
 C         2.011171         1.759377         0.050030
 C         2.979108         1.317966         1.098651
 O         3.581691         0.129806         0.412859
 C         2.777975        -0.106925        -0.751301
 C         2.455114         1.342607        -1.440747
 O         1.175792         0.910487        -1.771035
 C         1.349081         0.372288        -0.379770
 C         0.082249        -0.204232         0.192725
 H         0.628350         3.216561         1.283083
 H         1.975686         3.883367         0.134490
 H         0.513924         3.253238        -0.616089
 H         3.764711         2.042744         1.399115
 H         2.439222         1.176438         2.122182
 H         3.017158        -1.135631        -1.371796
 H         3.180556         1.558979        -2.262882
 H         0.234282        -0.636525         1.168665
 H        -0.586318         0.665879         0.177793
 H        -0.404702        -1.094318        -0.455663
