19
Iteration:  1809
 C         1.241865         3.090391         0.225546
 C         1.939007         1.745469         0.070952
 C         3.116807         1.446670         0.980303
 O         3.358729         0.063187         0.510624
 C         2.692176        -0.064747        -0.701669
 C         2.601390         1.273232        -1.386557
 O         1.265063         0.985783        -1.895882
 C         1.222893         0.443328        -0.428231
 C         0.170986        -0.361752         0.239931
 H         1.205861         3.274994         1.361122
 H         1.750485         3.918273        -0.137499
 H         0.273464         3.168671        -0.179213
 H         4.011338         2.138130         0.823531
 H         2.816342         1.377860         1.996753
 H         2.837241        -1.122671        -1.257184
 H         3.232527         1.749628        -2.087002
 H         0.782014        -0.802353         1.030689
 H        -0.669434         0.185971         0.729875
 H         0.031632        -1.359815        -0.305371
