19
Iteration:   709
 C         1.272662         3.084260         0.181593
 C         2.020081         1.690525         0.039693
 C         2.960807         1.222801         1.163804
 O         3.572290         0.039494         0.400554
 C         2.791117         0.014372        -0.801435
 C         2.484873         1.392589        -1.414581
 O         1.082349         0.997987        -1.745702
 C         1.322921         0.324536        -0.457392
 C         0.146151        -0.193912         0.254263
 H         0.666837         3.140517         1.125762
 H         2.010363         3.876783         0.218065
 H         0.658306         3.189970        -0.646413
 H         3.944827         1.808376         1.274408
 H         2.447052         1.015459         2.078770
 H         3.243166        -0.888448        -1.411978
 H         2.980712         2.022538        -2.160922
 H         0.493188        -0.970258         1.046298
 H        -0.378441         0.712456         0.639779
 H        -0.444893        -0.750433        -0.415683
