19
Iteration:   614
 C         1.284814         3.069578         0.296836
 C         2.024162         1.753424         0.106152
 C         3.128904         1.225689         1.088484
 O         3.660194         0.096357         0.387015
 C         2.752700         0.005638        -0.712048
 C         2.434326         1.286028        -1.424292
 O         1.108822         0.926746        -1.780138
 C         1.295942         0.426741        -0.372851
 C        -0.003185        -0.203322         0.101600
 H         0.639353         3.158766         1.150617
 H         1.982828         3.992604         0.278447
 H         0.576602         3.103839        -0.660908
 H         3.943536         1.914895         1.171860
 H         2.753745         0.884685         2.139554
 H         2.920143        -0.846768        -1.326415
 H         2.860911         2.002717        -2.183460
 H         0.069007        -0.408993         1.146159
 H        -0.826738         0.486187        -0.214138
 H        -0.149222        -1.243586        -0.397422
