19
Iteration:  1286charge 0 multiplicity 1
 C         1.408318         3.135676         0.226930
 C         1.928717         1.725242         0.093409
 C         2.984232         1.313613         1.089005
 O         3.672914         0.238806         0.379017
 C         2.810464        -0.055274        -0.722788
 C         2.487157         1.272299        -1.385535
 O         1.140884         0.865185        -1.792439
 C         1.244283         0.348973        -0.424668
 C        -0.047381        -0.290732         0.192658
 H         1.147900         3.468566         1.229461
 H         2.217054         3.750928        -0.051490
 H         0.430621         3.275089        -0.380930
 H         3.804375         2.103604         1.373156
 H         2.542809         0.949953         1.949759
 H         3.152041        -0.925691        -1.257371
 H         3.036671         1.837734        -2.150750
 H         0.114044        -0.476464         1.207835
 H        -0.917394         0.350508        -0.003597
 H        -0.254871        -1.215692        -0.312358
