19
Iteration:  1785
 C         1.188001         3.029178         0.262310
 C         2.047005         1.838374        -0.012206
 C         3.153919         1.369094         0.899005
 O         3.367185        -0.017713         0.632939
 C         2.700332        -0.034681        -0.611325
 C         2.575588         1.381568        -1.418549
 O         1.187467         0.939183        -1.897924
 C         1.266897         0.470738        -0.469289
 C         0.201443        -0.327643         0.231569
 H         0.856496         3.061395         1.341541
 H         1.516545         4.036844         0.047683
 H         0.392613         2.867146        -0.330572
 H         4.088857         2.008211         0.735130
 H         2.803450         1.484018         1.850420
 H         2.856885        -1.005897        -1.219779
 H         3.207596         1.865412        -2.210784
 H         0.593799        -0.800238         1.098216
 H        -0.558458         0.398560         0.549591
 H        -0.153130        -1.198424        -0.379740
