19
Iteration:   850charge 0 multiplicity 1
 C         1.238876         3.016738         0.222678
 C         2.088543         1.758274         0.031099
 C         3.064735         1.277144         1.100688
 O         3.575373         0.086957         0.374033
 C         2.745096        -0.042873        -0.747825
 C         2.538099         1.347088        -1.423594
 O         1.090182         0.967292        -1.733705
 C         1.328604         0.350103        -0.419675
 C         0.066310        -0.165518         0.197172
 H         0.699420         2.835380         1.246352
 H         1.776410         3.953766         0.399465
 H         0.512324         3.057000        -0.581478
 H         3.856546         1.917054         1.304088
 H         2.439135         1.063556         2.033162
 H         3.059019        -0.937505        -1.295247
 H         2.900198         1.923140        -2.253755
 H         0.272345        -0.677996         1.205462
 H        -0.619883         0.699436         0.277020
 H        -0.301474        -1.011971        -0.292055
