19
Iteration:  3079
 C         1.398103         3.079157         0.198850
 C         1.948387         1.770754         0.079386
 C         3.029819         1.295541         1.018163
 O         3.646429         0.154081         0.427990
 C         2.771681         0.019866        -0.627559
 C         2.523269         1.268073        -1.394807
 O         1.112515         0.898585        -1.791406
 C         1.177504         0.489494        -0.415527
 C         0.038978        -0.341459         0.110306
 H         0.771860         3.146574         1.156684
 H         2.141820         3.773392         0.346981
 H         0.701616         3.349938        -0.541315
 H         3.806313         2.091458         1.259439
 H         2.652197         0.831085         1.985872
 H         2.856311        -0.998894        -1.068995
 H         3.258063         1.809405        -1.998821
 H         0.258184        -0.481973         1.120922
 H        -0.839528         0.246929        -0.032530
 H        -0.320256        -1.403180        -0.224325
