19
Iteration:  4295
 C         1.289834         3.065604         0.179070
 C         1.987518         1.692856         0.124832
 C         3.002085         1.276641         1.090092
 O         3.589878         0.108158         0.419591
 C         2.781156        -0.053440        -0.745178
 C         2.519050         1.463399        -1.326990
 O         1.232852         0.945627        -1.809079
 C         1.236741         0.317672        -0.445698
 C         0.027513        -0.265105         0.181112
 H         0.727406         3.203789         1.081538
 H         2.117727         3.871935         0.356879
 H         0.876973         3.488472        -0.732625
 H         3.767997         2.052152         1.276720
 H         2.608923         0.808857         2.013303
 H         2.966249        -0.835165        -1.415584
 H         2.839808         2.157028        -2.088967
 H         0.038427        -0.546730         1.221714
 H        -0.866685         0.382519         0.067845
 H        -0.280278        -1.237315        -0.416771
