19
Iteration:  1732charge 0 multiplicity 1
 C         1.230887         3.026492         0.136353
 C         1.968919         1.691217         0.047972
 C         3.023684         1.279895         1.107183
 O         3.755555         0.220622         0.344532
 C         2.819258        -0.076604        -0.660328
 C         2.514760         1.244291        -1.358398
 O         1.236396         0.888407        -1.791355
 C         1.163444         0.469563        -0.423880
 C        -0.082162        -0.179059         0.234686
 H         0.326998         3.106333         0.922655
 H         1.880107         3.702031         0.630821
 H         0.878617         3.433424        -0.809342
 H         3.752700         2.126212         1.279860
 H         2.649933         0.822337         2.090779
 H         3.263635        -1.058971        -1.273943
 H         3.029802         1.866636        -2.043183
 H         0.169955        -0.488276         1.251826
 H        -0.935566         0.578883         0.320916
 H        -0.461686        -1.121512        -0.410217
