19
Iteration:  1442charge 0 multiplicity 1
 C         1.396025         3.138130         0.201900
 C         1.960625         1.716500         0.067157
 C         2.934462         1.209166         1.132492
 O         3.670039         0.239034         0.361896
 C         2.821690        -0.017417        -0.712241
 C         2.465328         1.257730        -1.389545
 O         1.182627         0.878496        -1.799720
 C         1.231340         0.363523        -0.388169
 C         0.015718        -0.246364         0.190940
 H         1.122440         3.422788         1.214736
 H         2.101453         3.846039        -0.350275
 H         0.422510         3.189564        -0.425651
 H         3.597898         2.129781         1.509128
 H         2.413026         0.792177         1.947630
 H         3.017983        -1.030652        -1.201076
 H         2.942565         2.000027        -2.196437
 H         0.025503        -0.193865         1.315136
 H        -0.879325         0.345106         0.007785
 H        -0.219785        -1.257371        -0.229387
