19
Iteration:  3462
 C         1.337198         3.080852         0.196257
 C         2.005543         1.758882        -0.032559
 C         2.981517         1.259281         1.114091
 O         3.524000         0.097445         0.454250
 C         2.664641        -0.057870        -0.750096
 C         2.561320         1.355034        -1.363679
 O         1.167259         1.008153        -1.830717
 C         1.290644         0.412757        -0.414148
 C         0.084754        -0.349886         0.223275
 H         1.002401         3.004778         1.271640
 H         2.062218         3.879980         0.117995
 H         0.549274         3.413107        -0.528385
 H         3.817723         2.057296         1.226822
 H         2.513858         1.073569         2.158297
 H         3.030644        -0.877753        -1.427972
 H         3.148844         2.021849        -2.079482
 H         0.487186        -0.486628         1.213891
 H        -0.715767         0.367972         0.342645
 H         0.013265        -1.471386        -0.135943
