19
Iteration:  1243
 C         1.146670         3.128498         0.335656
 C         2.066287         1.794815         0.030452
 C         3.225849         1.446278         0.935150
 O         3.433614         0.006383         0.533631
 C         2.713886        -0.060473        -0.718577
 C         2.558316         1.257683        -1.488602
 O         1.139682         0.935692        -1.754179
 C         1.316576         0.448863        -0.363984
 C         0.097774        -0.344913         0.144205
 H         0.457909         3.242014         1.187568
 H         1.805067         3.959225         0.396239
 H         0.480091         3.133347        -0.635948
 H         4.134138         2.112606         0.686545
 H         3.088014         1.344144         1.942568
 H         2.795311        -1.018897        -1.112743
 H         3.191587         1.731359        -2.293642
 H         0.064987        -0.343752         1.163086
 H        -0.699113         0.264380        -0.286916
 H         0.083987        -1.368645        -0.184433
