19
Iteration:  3179charge 0 multiplicity 1
 C         1.190912         2.971671         0.254796
 C         1.989564         1.734184         0.088860
 C         3.088766         1.346324         1.056152
 O         3.502672         0.037425         0.499710
 C         2.772600        -0.033102        -0.731136
 C         2.509515         1.292949        -1.382264
 O         1.191274         0.957362        -1.881103
 C         1.280010         0.415173        -0.456905
 C         0.135789        -0.146930         0.181125
 H         0.488315         3.093100         1.116584
 H         1.886439         3.733524         0.356366
 H         0.711669         3.237885        -0.727359
 H         3.947560         2.056291         0.969661
 H         2.761920         1.226273         2.149701
 H         2.984112        -0.891606        -1.219646
 H         3.101790         1.806860        -2.138761
 H         0.459542        -0.712265         1.061182
 H        -0.490239         0.666634         0.595781
 H        -0.479095        -0.919450        -0.372550
