19
Iteration:  3546
 C         1.137412         2.936986         0.311445
 C         2.052505         1.797453         0.036079
 C         3.220251         1.389406         0.962357
 O         3.524175        -0.025724         0.525576
 C         2.726301        -0.043077        -0.623299
 C         2.556920         1.355708        -1.362610
 O         1.175570         0.989185        -1.931829
 C         1.235753         0.448330        -0.409042
 C         0.059683        -0.210997         0.138090
 H         0.511563         2.857590         1.231580
 H         1.934335         3.872446         0.316454
 H         0.422468         3.045731        -0.462020
 H         4.096326         1.957823         0.773664
 H         2.860171         1.390280         1.968022
 H         2.861191        -1.036683        -1.132376
 H         3.211643         1.812435        -2.120796
 H         0.353885        -0.634897         1.086410
 H        -0.787490         0.488341         0.440293
 H        -0.442359        -1.073196        -0.420788
