19
Iteration:  3475charge 0 multiplicity 1
 C         1.341083         3.108794         0.221112
 C         1.970936         1.759626         0.051450
 C         2.947755         1.283878         1.103991
 O         3.585431         0.104029         0.364484
 C         2.725190        -0.026127        -0.679690
 C         2.536822         1.271647        -1.383594
 O         1.164379         0.951956        -1.798702
 C         1.229029         0.446752        -0.445223
 C         0.184475        -0.259914         0.210306
 H         0.687103         3.108065         1.179680
 H         2.065837         3.845442         0.356485
 H         0.495001         3.326813        -0.579899
 H         3.772094         1.983936         1.458700
 H         2.487403         0.781786         1.979830
 H         2.768496        -0.947931        -1.321449
 H         3.280588         1.637686        -2.150393
 H         0.268859        -0.591530         1.282312
 H        -0.796080         0.235182         0.086046
 H        -0.164337        -1.105892        -0.468816
