19
Iteration:   564
 C         1.289692         3.066567         0.254258
 C         1.970201         1.697715         0.079482
 C         2.996826         1.224129         1.170695
 O         3.528438        -0.001259         0.408158
 C         2.777074         0.027084        -0.834900
 C         2.507220         1.370516        -1.420381
 O         1.101249         1.006294        -1.867437
 C         1.298715         0.450802        -0.469812
 C         0.192038        -0.224852         0.311992
 H         0.661489         3.196789         1.165428
 H         2.021267         3.806285         0.224793
 H         0.650750         3.267869        -0.577397
 H         3.920582         1.753598         1.496672
 H         2.452114         0.996241         2.006290
 H         3.047909        -0.850819        -1.446160
 H         3.081180         1.859451        -2.196535
 H         0.459634        -0.153676         1.371584
 H        -0.740773         0.194562        -0.055454
 H         0.067969        -1.313349         0.076377
