19
Iteration:   833
 C         1.176007         2.966620         0.395407
 C         2.026931         1.750821        -0.003598
 C         3.150076         1.335910         0.941746
 O         3.526848         0.027340         0.439526
 C         2.683793        -0.041509        -0.712815
 C         2.524656         1.310264        -1.397556
 O         1.197074         0.940031        -1.842760
 C         1.249482         0.543963        -0.408762
 C         0.105711        -0.207787         0.219878
 H         0.701608         2.863371         1.304333
 H         1.811276         3.880703         0.342406
 H         0.389325         3.066367        -0.450368
 H         4.115088         2.038149         0.888226
 H         2.866180         1.242211         1.982223
 H         2.767876        -0.945796        -1.291907
 H         3.390104         1.814483        -1.970044
 H         0.267393        -0.403252         1.240880
 H        -0.798492         0.432698         0.234627
 H        -0.012417        -1.186092        -0.424776
