19
Iteration:    89charge 0 multiplicity 1
 C         1.182585         2.992800         0.193205
 C         2.056456         1.785440        -0.000842
 C         3.121355         1.401818         1.031437
 O         3.420109         0.006310         0.607499
 C         2.765120        -0.006893        -0.719975
 C         2.523465         1.344408        -1.445202
 O         1.128626         0.925036        -1.805334
 C         1.328205         0.462826        -0.417830
 C         0.180174        -0.274979         0.181331
 H         0.572854         2.859108         1.099743
 H         1.777587         3.943954         0.303710
 H         0.549406         3.078442        -0.626058
 H         3.990302         2.017697         0.986161
 H         2.763660         1.415500         2.002656
 H         2.889624        -0.839724        -1.330547
 H         3.148636         1.900428        -2.157898
 H         0.406098        -0.854511         0.984702
 H        -0.685305         0.299911         0.448830
 H        -0.002354        -1.007816        -0.587749
