19
Iteration:  2293charge 0 multiplicity 1
 C         1.258753         2.975902         0.229151
 C         2.003919         1.716527         0.041269
 C         3.095033         1.368728         1.060175
 O         3.597219         0.128826         0.463477
 C         2.767367        -0.058776        -0.760260
 C         2.541101         1.291536        -1.448923
 O         1.145553         0.871712        -1.764096
 C         1.239282         0.442095        -0.405963
 C         0.035127        -0.160469         0.195276
 H         0.648521         2.983918         1.154648
 H         1.904093         3.772392         0.353161
 H         0.424198         3.151735        -0.529477
 H         3.879297         2.115618         1.333599
 H         2.605708         1.159974         1.979815
 H         3.065768        -1.051448        -1.424974
 H         3.180961         1.965628        -2.090772
 H         0.133115        -0.369943         1.308389
 H        -0.778106         0.526840         0.073697
 H        -0.149943        -0.992432        -0.458817
