19
Iteration:  2664charge 0 multiplicity 1
 C         1.321275         2.971850         0.182552
 C         1.995267         1.700593         0.053424
 C         3.077898         1.306399         1.119317
 O         3.590745         0.145899         0.389151
 C         2.736068        -0.052752        -0.706628
 C         2.500282         1.381494        -1.407299
 O         1.113942         0.885887        -1.829308
 C         1.307587         0.384832        -0.380186
 C         0.026494        -0.156219         0.206315
 H         0.837567         2.868680         1.196647
 H         1.943860         3.753233         0.354250
 H         0.474956         3.159626        -0.548865
 H         3.783331         2.091564         1.263703
 H         2.493653         1.051865         2.048678
 H         3.285529        -0.936320        -1.283928
 H         3.128441         2.004597        -2.086756
 H         0.287862        -0.331219         1.214629
 H        -0.697335         0.602924         0.258130
 H        -0.309103        -1.029825        -0.370352
