19
Iteration:  1387
 C         1.143078         3.054414         0.282034
 C         2.032932         1.768948        -0.024128
 C         3.229072         1.397541         0.990441
 O         3.440554         0.001634         0.544057
 C         2.709058        -0.010047        -0.714447
 C         2.546720         1.348416        -1.394978
 O         1.140783         0.851711        -1.838926
 C         1.338023         0.433198        -0.391019
 C         0.085543        -0.245881         0.217007
 H         0.324923         2.889674         0.966055
 H         1.764144         3.955513         0.631788
 H         0.760681         3.480510        -0.771886
 H         4.159974         2.118755         0.744215
 H         3.040526         1.448388         2.042074
 H         3.042231        -0.914009        -1.235855
 H         3.155659         1.824224        -2.281921
 H         0.265273        -0.803411         1.122382
 H        -0.605286         0.572126         0.296817
 H        -0.146038        -1.011232        -0.551321
