19
Iteration:  1983charge 0 multiplicity 1
 C         1.277118         3.124594         0.095984
 C         2.015686         1.759523         0.090226
 C         3.012204         1.322996         1.165822
 O         3.617873         0.108413         0.431951
 C         2.759235         0.021482        -0.719114
 C         2.545837         1.319854        -1.375112
 O         1.102951         0.884126        -1.798154
 C         1.229906         0.374868        -0.407305
 C         0.121375        -0.302622         0.168974
 H         0.838055         3.338219         1.161704
 H         1.994768         3.852793        -0.210841
 H         0.446348         3.319458        -0.519120
 H         3.953490         1.854823         1.503012
 H         2.544534         0.903107         2.015225
 H         2.836490        -0.940262        -1.296957
 H         3.062995         1.950615        -2.075258
 H         0.407970        -0.745433         1.014094
 H        -0.699731         0.346665         0.331839
 H        -0.370509        -1.028781        -0.479242
