19
Iteration:  4206charge 0 multiplicity 1
 C         1.196216         3.000294         0.249976
 C         1.979427         1.816456         0.077708
 C         3.113998         1.246604         0.962242
 O         3.515691        -0.002188         0.527761
 C         2.685961        -0.029230        -0.716033
 C         2.541214         1.430142        -1.329349
 O         1.244885         0.989441        -1.890190
 C         1.324256         0.376739        -0.421215
 C         0.091559        -0.257858         0.172732
 H         0.726012         3.123009         1.192770
 H         1.860724         3.890445        -0.066090
 H         0.285913         3.020599        -0.421543
 H         3.836494         2.041708         1.028866
 H         2.685062         1.243800         1.970551
 H         2.945658        -0.840520        -1.345336
 H         2.984892         2.078699        -2.020314
 H         0.466286        -0.645650         1.211727
 H        -0.674797         0.544545         0.453874
 H        -0.390462        -1.074066        -0.340974
