19
Iteration:    87
 C         1.199518         3.000264         0.201177
 C         2.044187         1.782887        -0.001548
 C         3.116865         1.405199         1.029120
 O         3.425751         0.015334         0.589491
 C         2.772915         0.002793        -0.708824
 C         2.510991         1.333764        -1.442114
 O         1.138304         0.927012        -1.799013
 C         1.325515         0.452198        -0.420524
 C         0.172988        -0.285900         0.167048
 H         0.532346         2.892514         1.092323
 H         1.810496         3.906433         0.319211
 H         0.563372         3.106414        -0.703022
 H         4.044883         2.048735         1.004457
 H         2.671554         1.365376         2.011394
 H         2.884133        -0.859652        -1.297599
 H         3.107974         1.861332        -2.110089
 H         0.423401        -0.899815         1.072611
 H        -0.662926         0.367988         0.470721
 H        -0.036543        -0.981586        -0.577305
