19
Iteration:  4410
 C         1.210690         2.993996         0.276884
 C         1.987346         1.721775         0.064822
 C         3.104070         1.294729         1.074553
 O         3.612346         0.064350         0.452906
 C         2.801647         0.011736        -0.673035
 C         2.533005         1.325315        -1.370975
 O         1.162407         0.926662        -1.853051
 C         1.315380         0.458266        -0.405241
 C        -0.024502        -0.195808         0.068367
 H         0.537213         2.679650         1.138752
 H         1.810419         3.813719         0.575054
 H         0.795113         3.402227        -0.701442
 H         3.772591         2.095873         1.282466
 H         2.618071         0.968687         1.961575
 H         2.843716        -0.999326        -1.192822
 H         3.080545         2.039155        -2.061281
 H         0.329011        -0.673799         1.067637
 H        -0.802603         0.580179         0.284640
 H        -0.423817        -0.903561        -0.560829
