19
Iteration:  3931
 C         1.228480         3.049962         0.259044
 C         2.060742         1.745796         0.071650
 C         3.096005         1.395756         1.005629
 O         3.487544         0.011891         0.443412
 C         2.714873        -0.080151        -0.760387
 C         2.538753         1.382195        -1.356303
 O         1.195770         0.949303        -1.798832
 C         1.301416         0.399955        -0.405223
 C         0.067245        -0.253181         0.131657
 H         0.547197         2.984350         1.124858
 H         1.763902         4.082947         0.452165
 H         0.511427         3.301231        -0.525015
 H         3.979925         2.069531         1.202224
 H         2.670361         1.233013         2.032994
 H         2.963371        -1.072997        -1.226834
 H         3.273099         1.910279        -1.920234
 H         0.287677        -0.679693         1.139351
 H        -0.742558         0.428159         0.291901
 H        -0.194538        -1.142048        -0.423380
