19
Iteration:  4755
 C         1.169928         3.021296         0.322215
 C         2.048164         1.767051         0.003098
 C         3.061196         1.366753         1.002753
 O         3.447255        -0.030259         0.529244
 C         2.786688        -0.031528        -0.615774
 C         2.569332         1.362909        -1.384187
 O         1.192102         0.973289        -1.904155
 C         1.293558         0.431893        -0.513451
 C         0.107160        -0.237430         0.183582
 H         0.757775         2.918813         1.326598
 H         1.662082         4.038044         0.424305
 H         0.438975         3.144340        -0.390602
 H         3.967721         1.980324         0.882164
 H         2.753823         1.121957         2.006434
 H         2.968292        -0.879123        -1.356955
 H         3.207911         1.883239        -2.101187
 H         0.492444        -0.741823         1.056334
 H        -0.613087         0.527640         0.488757
 H        -0.218065        -1.074237        -0.500083
