19
Iteration:  2744
 C         1.214656         3.053164         0.223814
 C         2.007996         1.776926         0.009004
 C         3.147319         1.367892         0.892613
 O         3.430226         0.006416         0.561152
 C         2.718813        -0.051861        -0.619488
 C         2.506053         1.338883        -1.394018
 O         1.138502         1.031079        -1.788138
 C         1.329431         0.401147        -0.404501
 C         0.169962        -0.340240         0.161497
 H         0.818457         2.903191         1.182873
 H         2.016207         3.840054         0.249888
 H         0.480156         3.516781        -0.583172
 H         4.116277         1.986015         0.784639
 H         2.849687         1.461435         1.951767
 H         2.880927        -0.925490        -1.224141
 H         3.063219         1.863218        -2.248065
 H         0.355667        -0.697035         1.168973
 H        -0.681078         0.367835         0.164088
 H        -0.054093        -1.287268        -0.418211
