19
Iteration:  3913
 C         1.184636         2.988695         0.235238
 C         2.075139         1.804103         0.024770
 C         3.028268         1.206117         1.053811
 O         3.656621         0.089741         0.413169
 C         2.747206        -0.000907        -0.636561
 C         2.573910         1.318577        -1.389281
 O         1.193784         0.942570        -1.832643
 C         1.212970         0.493759        -0.401139
 C         0.024348        -0.205570         0.171013
 H         0.799750         2.925728         1.266471
 H         1.642744         3.932209         0.333196
 H         0.309064         3.067620        -0.524500
 H         3.908273         1.823940         1.393458
 H         2.521284         0.805102         1.945856
 H         2.861065        -0.940717        -1.271917
 H         3.131022         1.722622        -2.254321
 H         0.273657        -0.592523         1.243395
 H        -0.802622         0.602584         0.247828
 H        -0.317746        -0.936944        -0.546729
