19
Iteration:  1743charge 0 multiplicity 1
 C         1.240933         3.016962         0.190318
 C         1.989830         1.731646         0.049214
 C         3.052249         1.320504         1.028719
 O         3.694179         0.197448         0.397674
 C         2.775100        -0.077553        -0.662738
 C         2.543020         1.313336        -1.355249
 O         1.184530         0.892534        -1.804111
 C         1.240214         0.369510        -0.393228
 C        -0.036601        -0.160075         0.187075
 H         0.276555         2.830184         0.842260
 H         1.837878         3.843116         0.443274
 H         0.864443         3.209422        -0.819497
 H         3.798970         2.100587         1.330464
 H         2.525105         1.007716         1.977845
 H         2.846544        -1.157252        -1.206845
 H         3.230573         1.832165        -1.966985
 H         0.333189        -0.563399         1.133198
 H        -0.855887         0.586693         0.414667
 H        -0.482874        -1.117296        -0.358836
