19
Iteration:  1026
 C         1.250828         3.095074         0.201562
 C         2.009874         1.710990         0.001337
 C         2.938123         1.134287         1.047885
 O         3.750251         0.144049         0.346387
 C         2.859587        -0.038598        -0.749522
 C         2.509791         1.303117        -1.372950
 O         1.098006         0.903795        -1.807069
 C         1.267267         0.452975        -0.350173
 C         0.057778        -0.121832         0.329771
 H         0.584007         2.914322         0.967288
 H         1.886439         3.953534         0.257086
 H         0.578721         3.246017        -0.697161
 H         3.586091         1.773903         1.550671
 H         2.135374         0.723820         1.813747
 H         3.045438        -0.832241        -1.311891
 H         2.957053         2.084129        -2.104525
 H         0.130577        -0.048873         1.428917
 H        -0.977947         0.345975         0.066089
 H        -0.122509        -1.178187        -0.079880
