19
Iteration:  2047charge 0 multiplicity 1
 C         1.231706         3.077519         0.279574
 C         2.003430         1.823855         0.047524
 C         3.145440         1.441462         0.959331
 O         3.459697         0.036422         0.495045
 C         2.667466        -0.047004        -0.658792
 C         2.525600         1.285720        -1.423728
 O         1.259281         0.916970        -1.863456
 C         1.266456         0.427291        -0.438118
 C         0.099206        -0.326648         0.209944
 H         0.610901         2.701776         1.128334
 H         1.801476         4.064418         0.507818
 H         0.596306         3.233135        -0.535607
 H         3.977530         2.082033         0.877583
 H         2.852756         1.420298         2.041984
 H         2.715269        -1.082323        -1.065888
 H         3.110492         1.999914        -2.041205
 H         0.591747        -0.677198         1.089819
 H        -0.845675         0.277547         0.384660
 H        -0.104256        -1.279816        -0.386797
