19
Iteration:   634charge 0 multiplicity 1
 C         1.271366         2.979113         0.368005
 C         2.037045         1.761589         0.008079
 C         3.193322         1.412991         0.928305
 O         3.494509        -0.004972         0.509821
 C         2.732870        -0.084431        -0.690604
 C         2.451660         1.479744        -1.364980
 O         1.121428         0.884067        -1.782000
 C         1.318151         0.410633        -0.418130
 C         0.033661        -0.216359         0.095457
 H         0.860867         2.833237         1.326119
 H         2.036608         3.802774         0.445396
 H         0.504610         3.256991        -0.367196
 H         4.060987         2.104274         0.753319
 H         3.028731         1.354473         1.940748
 H         3.072655        -0.998071        -1.321755
 H         3.066137         1.985091        -2.136533
 H         0.171291        -0.657943         1.097437
 H        -0.767774         0.503976        -0.083172
 H        -0.268934        -0.993601        -0.590117
