19
Iteration:  3349
 C         1.213143         3.067355         0.252086
 C         1.967944         1.745653         0.055050
 C         3.096882         1.251444         1.066059
 O         3.622745         0.071968         0.446365
 C         2.798535         0.009932        -0.749447
 C         2.574540         1.376869        -1.410859
 O         1.181761         0.809688        -1.877442
 C         1.225957         0.440572        -0.377252
 C         0.001215        -0.156396         0.213038
 H         0.528995         3.089515         1.044119
 H         1.987258         3.900646         0.531169
 H         0.803314         3.336361        -0.633672
 H         3.868878         1.958174         1.459752
 H         2.623867         0.771161         2.021269
 H         3.033578        -0.906325        -1.316507
 H         2.983822         2.044344        -2.112428
 H         0.097564        -0.763754         1.158531
 H        -0.723044         0.641647         0.491356
 H        -0.527383        -0.827642        -0.517328
