19
Iteration:  4898charge 0 multiplicity 1
 C         1.256754         3.054931         0.304419
 C         1.974102         1.762095         0.022338
 C         3.083146         1.312207         0.976496
 O         3.482688        -0.011496         0.549056
 C         2.673810        -0.070690        -0.672257
 C         2.519072         1.418160        -1.269963
 O         1.208084         0.981346        -1.885450
 C         1.280859         0.460742        -0.537966
 C         0.129560        -0.325015         0.151659
 H         0.961766         3.166250         1.358291
 H         2.000064         3.841992         0.066016
 H         0.518179         3.336955        -0.375157
 H         3.791097         2.114816         0.665366
 H         2.879886         1.478987         2.083881
 H         3.011254        -0.738086        -1.418591
 H         3.167249         1.899971        -2.088987
 H         0.496740        -0.681519         1.184950
 H        -0.845612         0.150625         0.317353
 H         0.035818        -1.260136        -0.288586
