19
Iteration:  3818
 C         1.314730         3.038825         0.268072
 C         2.063526         1.834759        -0.008943
 C         3.138602         1.407654         0.961734
 O         3.408854        -0.011757         0.523328
 C         2.711455        -0.086001        -0.680575
 C         2.536675         1.335219        -1.396630
 O         1.151805         1.066771        -1.771131
 C         1.221473         0.502092        -0.434698
 C         0.121845        -0.439563         0.146411
 H         0.648406         2.777640         1.190078
 H         1.873629         3.860161         0.800679
 H         0.813802         3.291710        -0.644836
 H         3.994500         2.113482         0.888785
 H         2.780754         1.525804         2.029748
 H         2.889439        -1.069448        -1.098865
 H         3.232967         1.808071        -2.180681
 H         0.318488        -0.816086         1.076908
 H        -0.861350         0.001410         0.090613
 H         0.115127        -1.303032        -0.631904
