19
Iteration:  4775
 C         1.118177         2.904187         0.317407
 C         2.043058         1.860949        -0.018842
 C         3.123449         1.301780         1.073558
 O         3.409292         0.025297         0.608172
 C         2.669986        -0.040106        -0.816380
 C         2.552734         1.337097        -1.506553
 O         1.223385         0.948912        -1.837560
 C         1.412168         0.507846        -0.412129
 C         0.164735        -0.189037         0.147483
 H         0.678491         2.920005         1.261091
 H         1.706025         3.870344         0.372695
 H         0.342365         3.003637        -0.381472
 H         4.076615         1.766998         1.163349
 H         2.485688         1.162356         2.050040
 H         2.873632        -1.121750        -1.212506
 H         3.074908         1.905736        -2.165314
 H         0.480666        -0.601919         1.012500
 H        -0.522520         0.570700         0.490294
 H        -0.247316        -1.072969        -0.518492
