19
Iteration:  2070charge 0 multiplicity 1
 C         1.154471         2.978179         0.299523
 C         2.008137         1.824458        -0.023464
 C         3.090029         1.320535         0.935099
 O         3.428877         0.017562         0.605287
 C         2.777224        -0.030572        -0.684434
 C         2.566020         1.318843        -1.449894
 O         1.132173         0.904967        -1.855860
 C         1.312281         0.473714        -0.454889
 C         0.198630        -0.199019         0.246603
 H         0.638896         2.624591         1.274769
 H         1.773406         3.919867         0.441549
 H         0.493422         3.151285        -0.456422
 H         3.955537         1.899164         0.725344
 H         2.867364         1.482085         1.970086
 H         3.145112        -0.828500        -1.272960
 H         3.130376         1.865233        -2.173813
 H         0.403451        -0.455200         1.208166
 H        -0.544644         0.609372         0.075940
 H        -0.045329        -1.085209        -0.385148
