19
Iteration:  1936
 C         1.159520         2.977682         0.289137
 C         2.067750         1.855078         0.006407
 C         3.126326         1.411852         0.997730
 O         3.398112         0.001470         0.588194
 C         2.715828        -0.098892        -0.660092
 C         2.547390         1.411401        -1.498063
 O         1.199520         0.893519        -1.858974
 C         1.262751         0.402351        -0.507025
 C         0.190502        -0.204145         0.235320
 H         0.772952         2.693542         1.279132
 H         1.600611         4.064224         0.311041
 H         0.264902         2.974659        -0.297697
 H         3.959505         2.058386         0.827258
 H         3.008634         1.274948         2.111664
 H         3.033683        -1.039966        -1.264352
 H         3.283427         1.867406        -2.293671
 H         0.625129        -0.394095         1.185820
 H        -0.717050         0.402684         0.242620
 H        -0.157237        -1.106416        -0.312424
