19
Iteration:  3520charge 0 multiplicity 1
 C         1.219899         2.993923         0.324943
 C         2.001375         1.736072         0.070068
 C         3.095460         1.372902         0.942046
 O         3.528833         0.081811         0.448550
 C         2.778942        -0.059918        -0.741581
 C         2.602660         1.318318        -1.332795
 O         1.146883         0.909236        -1.789215
 C         1.296461         0.368851        -0.388121
 C         0.025087        -0.173071         0.110979
 H         0.397329         3.070740         1.092975
 H         1.934281         3.731024         0.530506
 H         0.780693         3.213992        -0.718950
 H         3.917805         2.123097         0.920503
 H         2.703099         1.313651         1.984464
 H         3.037726        -0.893054        -1.367850
 H         3.247974         1.862044        -2.006940
 H         0.211682        -0.548242         1.179970
 H        -0.702067         0.625975         0.263460
 H        -0.495446        -0.866255        -0.434675
