19
Iteration:  2421
 C         1.246995         3.087869         0.189678
 C         2.002989         1.755619         0.041642
 C         3.054006         1.264570         1.077819
 O         3.631296         0.101506         0.430923
 C         2.758107         0.003805        -0.748021
 C         2.561071         1.277703        -1.352393
 O         1.147622         0.904871        -1.845143
 C         1.230232         0.414936        -0.405317
 C         0.045677        -0.223713         0.253782
 H         0.721566         2.989488         1.223767
 H         1.753344         4.117210         0.114242
 H         0.629028         3.155209        -0.670067
 H         3.730064         2.100171         1.305246
 H         2.517282         0.875947         2.018318
 H         2.968505        -0.890662        -1.417358
 H         3.085611         1.772955        -2.176688
 H         0.434372        -0.786207         1.193682
 H        -0.537956         0.679511         0.501338
 H        -0.467374        -0.906525        -0.335249
