19
Iteration:   481
 C         1.268767         3.036071         0.264972
 C         1.981598         1.761534         0.048015
 C         3.162613         1.310738         1.036157
 O         3.633329         0.053260         0.428223
 C         2.797855        -0.026785        -0.711827
 C         2.470852         1.428429        -1.385904
 O         1.106189         0.854846        -1.781311
 C         1.307226         0.410943        -0.295733
 C        -0.047654        -0.215190         0.044351
 H         0.780184         2.878307         1.264870
 H         1.972714         3.952582         0.408252
 H         0.507811         3.158637        -0.478452
 H         3.968652         1.986924         1.113590
 H         2.748581         1.154870         2.125424
 H         2.999064        -0.974238        -1.383490
 H         3.068623         2.030190        -2.073409
 H        -0.094439        -1.091118         0.784895
 H        -0.584353         0.557852         0.597545
 H        -0.409594        -0.475951        -0.891263
