19
Iteration:  3251
 C         1.311361         3.071810         0.236825
 C         2.032351         1.748371         0.024064
 C         3.092152         1.377834         1.033997
 O         3.521882         0.060960         0.508043
 C         2.747726        -0.051371        -0.701972
 C         2.486171         1.309086        -1.392541
 O         1.196183         0.972863        -1.787494
 C         1.204042         0.445567        -0.436662
 C         0.055362        -0.343931         0.122856
 H         0.858706         3.088066         1.202796
 H         2.055775         3.987667         0.158998
 H         0.590167         3.261036        -0.483653
 H         4.010627         1.964087         1.201132
 H         2.492479         1.242742         1.940472
 H         2.994763        -0.848505        -1.517404
 H         3.184924         1.893516        -1.966979
 H         0.185649        -0.635373         1.157500
 H        -0.788620         0.309131         0.216285
 H        -0.142610        -1.311809        -0.257999
