19
Iteration:  3008
 C         1.156985         2.996370         0.239872
 C         1.964417         1.713229         0.007722
 C         3.141422         1.361809         0.959480
 O         3.435788         0.048445         0.486016
 C         2.676047        -0.079161        -0.649884
 C         2.559463         1.315191        -1.376612
 O         1.272988         1.065587        -1.909980
 C         1.300348         0.349875        -0.395548
 C         0.159296        -0.235671         0.283452
 H         0.615413         3.060535         1.093005
 H         1.747214         3.975038         0.200646
 H         0.355716         3.068114        -0.549691
 H         3.968528         2.063777         0.831153
 H         2.831612         1.350376         1.969933
 H         2.788816        -0.976937        -1.136985
 H         3.275372         1.845605        -2.013969
 H         0.579930        -0.839304         1.150503
 H        -0.490546         0.658756         0.429342
 H        -0.426079        -0.911300        -0.196586
