19
Iteration:  2703
 C         1.263888         3.093356         0.214537
 C         1.943974         1.773004        -0.027144
 C         3.001470         1.268303         1.071031
 O         3.563294         0.071823         0.351587
 C         2.671234        -0.036167        -0.658729
 C         2.507169         1.354457        -1.363018
 O         1.190243         0.929618        -1.802533
 C         1.282782         0.425204        -0.388265
 C         0.184321        -0.243745         0.217907
 H         0.773319         3.156854         1.225347
 H         2.097890         3.911889         0.008533
 H         0.505403         3.265363        -0.570275
 H         3.890423         1.902617         1.319508
 H         2.721539         0.952966         2.077640
 H         2.859203        -0.920931        -1.149865
 H         3.316000         1.738830        -1.942078
 H         0.346528        -0.506101         1.338616
 H        -0.797595         0.298274         0.017313
 H         0.051779        -1.253286        -0.093314
