19
Iteration:  4300
 C         1.317741         3.057027         0.167571
 C         1.981583         1.692079         0.103360
 C         3.006275         1.238471         1.101099
 O         3.598149         0.093743         0.451174
 C         2.808076        -0.043417        -0.755906
 C         2.461478         1.449412        -1.357523
 O         1.231183         0.964013        -1.813235
 C         1.223768         0.357395        -0.414745
 C         0.023110        -0.291168         0.160343
 H         0.648764         3.385732         1.065529
 H         2.133026         3.711499         0.260087
 H         0.719787         3.440455        -0.697466
 H         3.655571         2.101147         1.313454
 H         2.619131         0.964801         2.093704
 H         2.958865        -0.885066        -1.553868
 H         2.999382         2.291577        -1.949630
 H         0.226186        -0.482350         1.258196
 H        -0.826988         0.383214         0.108836
 H        -0.181432        -1.177760        -0.338101
