19
Iteration:   321
 C         1.275559         3.094989         0.285380
 C         2.037027         1.761833         0.050885
 C         3.019537         1.182285         1.159949
 O         3.670666         0.176443         0.364516
 C         2.813187         0.055348        -0.743869
 C         2.436428         1.312548        -1.347072
 O         1.104902         0.802014        -1.780163
 C         1.348731         0.320848        -0.375414
 C        -0.021865        -0.127441         0.066797
 H         0.818530         3.400234         1.189709
 H         1.965126         3.898664        -0.025317
 H         0.550136         3.128038        -0.545889
 H         3.860423         1.868445         1.626758
 H         2.516084         0.700176         1.937571
 H         3.089684        -0.944643        -1.298417
 H         2.915983         2.019662        -2.134163
 H        -0.083077        -0.370732         1.016074
 H        -0.685044         0.696344         0.048481
 H        -0.173756        -1.079703        -0.505210
