19
Iteration:   774
 C         1.326482         3.028172         0.364492
 C         2.035854         1.764778        -0.013249
 C         3.148516         1.338555         1.009404
 O         3.504215         0.025760         0.503820
 C         2.738835        -0.059005        -0.686169
 C         2.442937         1.385001        -1.464671
 O         1.076803         0.935755        -1.780254
 C         1.280628         0.475158        -0.428892
 C         0.128536        -0.281242         0.104627
 H         0.773279         3.011374         1.406649
 H         2.020015         3.885510         0.361852
 H         0.588598         3.285107        -0.354599
 H         3.997464         2.108294         0.891798
 H         2.779421         1.380376         2.083963
 H         2.878344        -1.059464        -1.216602
 H         3.144743         1.877281        -2.140005
 H         0.106997        -0.428994         1.222658
 H        -0.779220         0.156060        -0.302296
 H         0.050621        -1.237941        -0.337956
