19
Iteration:  3446charge 0 multiplicity 1
 C         1.316037         3.071638         0.245655
 C         1.982400         1.751698         0.075563
 C         3.074806         1.320872         0.999912
 O         3.439794        -0.009862         0.516001
 C         2.810498        -0.020465        -0.699020
 C         2.492281         1.394118        -1.391393
 O         1.165231         1.015693        -1.866425
 C         1.217484         0.422111        -0.507729
 C         0.174788        -0.328989         0.253587
 H         0.975487         3.423237         1.195015
 H         1.995311         3.967985        -0.030004
 H         0.621241         2.945625        -0.573704
 H         3.888647         1.946134         1.172273
 H         2.603366         1.141933         1.953357
 H         2.923695        -0.935614        -1.265836
 H         3.095125         1.930719        -2.069406
 H         0.397169        -0.587900         1.334375
 H        -0.848236         0.086168         0.238051
 H        -0.073480        -1.162341        -0.248957
