19
Iteration:  4198
 C         1.203746         3.033672         0.206610
 C         2.016267         1.762311         0.047410
 C         3.082359         1.303755         1.068419
 O         3.533089         0.021815         0.480039
 C         2.708071        -0.068483        -0.772445
 C         2.508352         1.427356        -1.314577
 O         1.244574         0.986460        -1.848368
 C         1.236686         0.397625        -0.423477
 C         0.126756        -0.269025         0.215079
 H         0.934995         3.201777         1.308146
 H         1.716620         4.046284        -0.035367
 H         0.388412         2.959857        -0.535141
 H         4.005975         1.900126         1.211772
 H         2.519827         1.095544         1.990170
 H         2.858514        -0.875552        -1.447376
 H         3.230060         2.008453        -2.010025
 H         0.334861        -0.735725         1.131527
 H        -0.668948         0.469774         0.302681
 H        -0.265291        -1.070114        -0.528077
