19
Iteration:   695
 C         1.231615         3.016610         0.288513
 C         2.043165         1.814887         0.009587
 C         3.050877         1.289484         0.978458
 O         3.451149         0.008045         0.453313
 C         2.776372        -0.054433        -0.776001
 C         2.583700         1.389535        -1.419410
 O         1.127183         0.946071        -1.782271
 C         1.322654         0.473392        -0.441344
 C         0.143566        -0.243252         0.259279
 H         0.678215         2.969839         1.343153
 H         1.864507         3.892569         0.327341
 H         0.469044         3.225935        -0.446207
 H         3.831305         1.999310         1.273254
 H         2.525426         0.991811         1.969736
 H         2.937156        -0.959164        -1.456470
 H         3.150506         1.919646        -2.157920
 H         0.442141        -1.024556         1.051132
 H        -0.482689         0.418194         0.893000
 H        -0.410443        -0.753288        -0.509150
