19
Iteration:  4090charge 0 multiplicity 1
 C         1.153086         2.949987         0.331210
 C         2.122778         1.780988         0.002664
 C         3.121831         1.482400         1.010700
 O         3.427280         0.013370         0.487128
 C         2.736332        -0.061851        -0.707584
 C         2.574213         1.269853        -1.406649
 O         1.201269         0.994977        -1.802314
 C         1.262782         0.431965        -0.423033
 C         0.049267        -0.193478         0.142039
 H         0.607476         2.461849         1.189515
 H         1.717617         3.804916         0.621742
 H         0.418216         3.222112        -0.381713
 H         4.167201         1.933623         0.839772
 H         3.076100         1.270977         2.107457
 H         2.968096        -0.901777        -1.296386
 H         3.187509         1.739627        -2.306420
 H         0.480109        -0.546230         1.013995
 H        -0.915105         0.267417         0.265789
 H         0.069719        -1.118954        -0.583450
