19
Iteration:   763
 C         1.295164         3.125796         0.307394
 C         2.044161         1.780893         0.064285
 C         3.093690         1.285675         1.012822
 O         3.616217         0.077561         0.410939
 C         2.668394        -0.063657        -0.684995
 C         2.506935         1.310979        -1.407550
 O         1.096399         0.978800        -1.815924
 C         1.269762         0.417401        -0.374119
 C         0.074672        -0.313258         0.116803
 H         0.662764         3.174586         1.302694
 H         2.007977         3.957501         0.324536
 H         0.626007         3.251428        -0.500233
 H         4.023256         1.907345         1.268530
 H         2.537516         1.032454         1.987681
 H         2.912741        -1.041234        -1.231253
 H         3.035698         1.891785        -2.163136
 H         0.143328        -0.434255         1.259451
 H        -0.831893         0.267025        -0.021694
 H         0.129596        -1.252544        -0.347232
