19
Iteration:   941
 C         1.292338         3.011258         0.391562
 C         2.091387         1.790851        -0.035031
 C         3.246570         1.426217         0.876467
 O         3.298808         0.036265         0.592715
 C         2.657142        -0.004837        -0.658450
 C         2.481238         1.338837        -1.444084
 O         1.121551         0.927326        -1.794309
 C         1.279657         0.399280        -0.425591
 C         0.221653        -0.321674         0.137773
 H         0.860645         3.025497         1.353167
 H         1.840707         4.030811         0.397089
 H         0.392411         3.141149        -0.408320
 H         4.300009         1.816069         0.641612
 H         2.870359         1.648091         1.853023
 H         2.840893        -0.888903        -1.209506
 H         3.122004         1.923098        -2.259827
 H         0.634501        -0.929573         0.853512
 H        -0.610295         0.345428         0.439188
 H        -0.145021        -1.030145        -0.721280
