19
Iteration:  2397charge 0 multiplicity 1
 C         1.267814         3.049785         0.136913
 C         1.983837         1.746522         0.039258
 C         2.986976         1.247947         1.053015
 O         3.633713         0.136895         0.445593
 C         2.689106        -0.097855        -0.743629
 C         2.509818         1.397194        -1.357751
 O         1.176064         0.931532        -1.796003
 C         1.265371         0.427480        -0.393407
 C         0.113435        -0.245597         0.288121
 H         0.845476         3.291226         1.156942
 H         2.158415         3.854213        -0.104967
 H         0.782613         3.259134        -0.769740
 H         3.716758         2.003609         1.356226
 H         2.453833         0.793007         1.942740
 H         2.815586        -0.946597        -1.308870
 H         2.964634         1.900818        -2.216824
 H         0.489771        -0.886679         1.075946
 H        -0.705614         0.487121         0.518030
 H        -0.191169        -0.974592        -0.491998
