19
Iteration:  1454
 C         1.311916         3.156590         0.144172
 C         1.937445         1.749310         0.018112
 C         2.934546         1.222412         1.059506
 O         3.659692         0.094867         0.430270
 C         2.829879        -0.077935        -0.694327
 C         2.513306         1.443176        -1.387437
 O         1.124254         0.842101        -1.750558
 C         1.275956         0.418387        -0.413183
 C         0.033765        -0.262271         0.212219
 H         1.292652         3.526456         1.233875
 H         2.036569         3.991443        -0.298687
 H         0.300010         3.229084        -0.311770
 H         3.793190         1.963647         1.427701
 H         2.486746         0.806676         1.944290
 H         3.179739        -0.992337        -1.311296
 H         3.152443         2.115214        -2.123958
 H         0.112129        -0.318577         1.368293
 H        -0.725606         0.385066        -0.189370
 H        -0.131301        -1.318586        -0.065245
