19
Iteration:  3210charge 0 multiplicity 1
 C         1.210665         3.041070         0.251946
 C         1.995973         1.819591         0.037967
 C         3.029951         1.323424         1.066752
 O         3.614572         0.088422         0.370642
 C         2.796185        -0.049159        -0.695541
 C         2.533480         1.285965        -1.372171
 O         1.203439         0.868569        -1.794069
 C         1.260276         0.434010        -0.354788
 C        -0.010488        -0.188073         0.144316
 H         0.571142         3.220412         1.204301
 H         2.118057         3.725943         0.412978
 H         0.857508         3.500018        -0.674170
 H         3.885034         1.948324         1.437219
 H         2.488692         0.980588         1.940103
 H         2.986266        -0.948611        -1.188248
 H         3.085560         1.739945        -2.170364
 H         0.285742        -0.752852         1.003032
 H        -0.852009         0.426964         0.446501
 H        -0.222624        -0.974962        -0.761690
