19
Iteration:  1297
 C         1.381462         3.186981         0.207739
 C         1.963482         1.706043         0.020004
 C         2.926705         1.210478         1.137691
 O         3.625802         0.215796         0.383445
 C         2.872882         0.000240        -0.729202
 C         2.424075         1.261550        -1.421804
 O         1.144851         0.859090        -1.791433
 C         1.254716         0.325660        -0.357312
 C         0.045862        -0.241649         0.208349
 H         1.147022         3.317215         1.254538
 H         2.028308         3.913370        -0.187231
 H         0.472569         3.438357        -0.513798
 H         3.720511         2.074471         1.371034
 H         2.588476         0.856029         2.028297
 H         3.197724        -0.824208        -1.313295
 H         3.030490         1.913717        -2.082380
 H         0.126316        -0.537490         1.185032
 H        -0.743862         0.532369         0.198474
 H        -0.245714        -1.097384        -0.380971
