19
Iteration:  4493charge 0 multiplicity 1
 C         1.244941         3.077952         0.317992
 C         2.003122         1.798135         0.026487
 C         3.014544         1.303828         0.985775
 O         3.374057        -0.036152         0.521431
 C         2.714801        -0.023215        -0.702483
 C         2.539185         1.393407        -1.382819
 O         1.267313         1.018184        -1.843043
 C         1.314669         0.428915        -0.462704
 C         0.202754        -0.325786         0.160875
 H         0.816292         3.183660         1.323320
 H         1.967719         3.920768         0.186546
 H         0.395262         3.040574        -0.281676
 H         3.962252         1.949642         0.851614
 H         2.625460         1.406941         2.072434
 H         3.049708        -0.843890        -1.437219
 H         3.045667         1.877740        -2.212179
 H         0.311714        -0.621581         1.182335
 H        -0.772170         0.096569         0.268339
 H         0.007957        -1.380180        -0.307020
