19
Iteration:  4771
 C         1.141119         2.966977         0.335425
 C         2.034454         1.847588        -0.011640
 C         3.131690         1.300501         1.087278
 O         3.414122         0.015232         0.608463
 C         2.678396        -0.093701        -0.833013
 C         2.541569         1.362394        -1.502839
 O         1.234396         0.948088        -1.851965
 C         1.378386         0.489938        -0.436614
 C         0.178731        -0.196493         0.154292
 H         0.557695         2.834583         1.328506
 H         1.715197         3.874420         0.356393
 H         0.194935         2.943093        -0.422279
 H         4.100073         1.873070         1.189697
 H         2.539875         1.344609         2.038903
 H         2.967683        -1.049301        -1.119806
 H         3.134114         1.971046        -2.279103
 H         0.437175        -0.727672         1.165203
 H        -0.664303         0.498067         0.427673
 H        -0.285789        -0.920259        -0.488407
