19
Iteration:  1006charge 0 multiplicity 1
 C         1.259531         3.000867         0.221067
 C         2.044290         1.750865         0.012288
 C         3.065530         1.222638         1.150587
 O         3.681691         0.159947         0.374849
 C         2.813372        -0.006287        -0.780597
 C         2.445408         1.308825        -1.491455
 O         1.090441         0.898480        -1.688885
 C         1.301829         0.380108        -0.396589
 C         0.015239        -0.127713         0.227018
 H         0.645680         3.003187         1.068773
 H         1.984638         3.873611         0.187465
 H         0.558396         3.074610        -0.729209
 H         3.831505         1.856822         1.591611
 H         2.413566         0.774664         1.959928
 H         3.066597        -0.867595        -1.313741
 H         3.148752         1.961481        -2.190612
 H         0.017362        -0.059181         1.280783
 H        -0.892062         0.437450        -0.167979
 H        -0.381849        -1.160664        -0.151242
