19
Iteration:  4404
 C         1.214387         3.013691         0.258687
 C         1.963142         1.678758         0.054601
 C         3.090681         1.303913         1.063148
 O         3.585857         0.059037         0.492891
 C         2.797332        -0.007547        -0.739502
 C         2.587569         1.389474        -1.390466
 O         1.173306         0.931981        -1.880390
 C         1.320679         0.418000        -0.350418
 C        -0.048876        -0.211439         0.130289
 H         0.551358         2.890595         1.097255
 H         1.981795         3.751320         0.731954
 H         0.551402         3.408107        -0.506371
 H         3.996444         2.026271         1.047247
 H         2.538578         1.163175         2.079032
 H         2.889806        -0.910992        -1.267630
 H         3.084037         2.090846        -2.021882
 H         0.297678        -0.747726         0.983377
 H        -0.718478         0.634371         0.241111
 H        -0.332483        -1.003459        -0.683394
