19
Iteration:  4166charge 0 multiplicity 1
 C         1.313550         3.128220         0.201210
 C         2.012540         1.688937         0.055211
 C         2.964275         1.220940         1.072932
 O         3.656100         0.152197         0.511711
 C         2.679132        -0.081217        -0.731445
 C         2.465685         1.326888        -1.436661
 O         1.136977         1.034432        -1.755311
 C         1.259979         0.489316        -0.440503
 C         0.166439        -0.337594         0.151131
 H         0.724394         3.273841         1.192894
 H         2.136826         3.857332        -0.023332
 H         0.524879         3.091730        -0.547924
 H         3.747583         1.826301         1.587030
 H         2.350799         0.839617         1.948162
 H         2.777294        -1.029584        -1.211078
 H         3.198972         1.692508        -2.272908
 H         0.346914        -0.747331         1.069568
 H        -0.679608         0.316131         0.164525
 H        -0.071778        -1.143246        -0.649791
