19
Iteration:  2494charge 0 multiplicity 1
 C         1.223287         3.051849         0.292365
 C         1.990110         1.782524         0.046884
 C         3.143580         1.316675         0.944620
 O         3.544724         0.030079         0.498392
 C         2.679328        -0.071735        -0.700460
 C         2.505132         1.347763        -1.369633
 O         1.186030         0.920538        -1.846944
 C         1.260855         0.460812        -0.408944
 C         0.103601        -0.242420         0.207648
 H         0.639513         2.852205         1.185730
 H         1.965169         3.979915         0.313949
 H         0.376005         3.229508        -0.422762
 H         3.921182         2.112022         0.703613
 H         2.962220         1.620467         2.015311
 H         2.818541        -0.899675        -1.293255
 H         3.290017         1.736708        -2.071966
 H         0.292347        -0.507257         1.230605
 H        -0.755700         0.407801        -0.130831
 H         0.008475        -1.310243        -0.282788
