19
Iteration:  1065charge 0 multiplicity 1
 C         1.265390         3.030705         0.280648
 C         2.003421         1.769648        -0.011205
 C         3.090425         1.377205         0.963449
 O         3.463637         0.022889         0.527726
 C         2.742797        -0.049426        -0.744127
 C         2.499066         1.329696        -1.433721
 O         1.166411         0.972845        -1.881509
 C         1.261297         0.437672        -0.424642
 C         0.148312        -0.293464         0.305048
 H         0.595452         2.948531         1.256489
 H         1.902433         3.946480         0.396441
 H         0.607219         3.261896        -0.536867
 H         4.010949         2.088537         0.932103
 H         2.831658         1.284960         1.974018
 H         2.948571        -1.100866        -1.341369
 H         3.185390         1.953580        -1.927429
 H         0.464351        -0.482208         1.365343
 H        -0.696126         0.327949         0.314800
 H         0.017419        -1.206006        -0.184959
