19
Iteration:  2002charge 0 multiplicity 1
 C         1.374596         3.124114         0.133554
 C         2.042715         1.782026         0.031017
 C         2.975000         1.266467         1.089570
 O         3.584592         0.143664         0.432489
 C         2.797176        -0.032515        -0.684465
 C         2.409962         1.366186        -1.357716
 O         1.125464         0.887870        -1.709518
 C         1.325428         0.442076        -0.362937
 C         0.077110        -0.378308         0.134807
 H         0.676403         3.194478         0.932702
 H         2.105536         4.004197        -0.187606
 H         0.742488         3.154060        -0.765814
 H         3.682083         2.012832         1.256600
 H         2.446967         0.998774         2.076636
 H         3.234431        -0.923197        -1.326788
 H         2.904888         1.985562        -2.234262
 H         0.101222        -0.973797         1.089056
 H        -0.705175         0.429835         0.255538
 H        -0.487605        -1.046964        -0.642367
