19
Iteration:  2008charge 0 multiplicity 1
 C         1.388507         3.111139         0.106543
 C         2.024203         1.761307         0.022305
 C         2.939638         1.325436         1.058767
 O         3.617059         0.115803         0.441287
 C         2.811110        -0.046100        -0.677048
 C         2.445437         1.361178        -1.378588
 O         1.143535         0.913375        -1.707998
 C         1.252382         0.419563        -0.329389
 C         0.080666        -0.384989         0.114179
 H         0.693652         3.155305         0.991250
 H         2.062583         3.940479         0.123881
 H         0.630678         3.305182        -0.748897
 H         3.831639         2.055599         1.193062
 H         2.519136         1.012660         2.000709
 H         2.965084        -0.910635        -1.234492
 H         2.782438         2.105749        -2.049300
 H         0.185378        -0.916088         1.130490
 H        -0.678060         0.384391         0.302770
 H        -0.378014        -0.991229        -0.620435
