19
Iteration:  1272charge 0 multiplicity 1
 C         1.367436         3.067159         0.239650
 C         1.994400         1.712952        -0.001267
 C         3.085325         1.366196         1.006244
 O         3.698732         0.178097         0.413429
 C         2.686307        -0.012743        -0.616402
 C         2.526600         1.341113        -1.319847
 O         1.097715         0.848225        -1.805553
 C         1.176657         0.429525        -0.406075
 C        -0.010828        -0.333468         0.102908
 H         1.061848         3.238860         1.307616
 H         2.108619         3.859485         0.081483
 H         0.572468         3.174075        -0.398217
 H         3.794978         2.220568         1.145935
 H         2.747555         1.078083         2.056726
 H         2.809932        -1.070812        -1.196181
 H         3.202916         1.879616        -1.882270
 H         0.060006        -0.418036         1.268457
 H        -0.861803         0.320569        -0.170196
 H        -0.068279        -1.372083        -0.187485
