19
Iteration:  4519
 C         1.299940         3.048218         0.280498
 C         2.023519         1.799467         0.013104
 C         3.106666         1.325831         1.123571
 O         3.467088         0.041349         0.489392
 C         2.647506        -0.000842        -0.607517
 C         2.598605         1.296015        -1.348920
 O         1.115541         1.023181        -1.907984
 C         1.216153         0.503485        -0.507971
 C         0.214555        -0.385020         0.077916
 H         0.856909         3.026689         1.338060
 H         1.880157         3.924361         0.284348
 H         0.371957         3.228093        -0.386252
 H         4.032470         1.885321         1.162504
 H         2.521133         1.194280         2.106976
 H         2.869086        -0.949736        -1.163089
 H         3.235669         1.805140        -2.133008
 H         0.444240        -0.870776         1.125723
 H        -0.772655         0.133083         0.231647
 H         0.034304        -1.268277        -0.424384
