19
Iteration:   337
 C         1.337540         3.085474         0.240710
 C         1.977805         1.760687         0.066499
 C         3.059311         1.276755         1.056502
 O         3.709661         0.137872         0.377322
 C         2.784283        -0.063245        -0.683737
 C         2.484589         1.374386        -1.394742
 O         1.143639         0.860667        -1.715640
 C         1.230076         0.463529        -0.330466
 C        -0.027895        -0.271802         0.033942
 H         0.782807         2.967202         1.252112
 H         2.070396         3.904071         0.353026
 H         0.500872         3.299980        -0.496218
 H         3.698515         2.034677         1.365375
 H         2.525071         0.770048         1.988374
 H         2.944463        -0.867759        -1.320328
 H         3.037046         1.839303        -2.162773
 H        -0.281762        -0.527086         1.215686
 H        -0.881451         0.451933        -0.269555
 H        -0.106282        -1.177015        -0.557241
