19
Iteration:  2590charge 0 multiplicity 1
 C         1.239260         3.063589         0.232726
 C         1.964558         1.777343        -0.035046
 C         3.112833         1.373761         1.004746
 O         3.458848         0.004755         0.548147
 C         2.785466        -0.102194        -0.746967
 C         2.545823         1.309483        -1.405016
 O         1.145748         0.984014        -1.775831
 C         1.286393         0.431405        -0.445842
 C         0.133498        -0.267058         0.226788
 H         0.725255         3.009057         1.150933
 H         1.961977         3.823469         0.380051
 H         0.350088         3.350879        -0.494239
 H         3.942164         2.116801         0.779515
 H         3.035592         1.474232         2.061217
 H         2.953174        -1.088172        -1.234147
 H         3.050386         2.064458        -2.082027
 H         0.513127        -0.827712         1.024992
 H        -0.686012         0.400037         0.489182
 H        -0.255128        -1.002475        -0.588544
