19
Iteration:  4500charge 0 multiplicity 1
 C         1.252450         3.045833         0.330176
 C         2.034224         1.809496        -0.001060
 C         3.021116         1.317564         0.981313
 O         3.423986        -0.025147         0.604887
 C         2.697550        -0.081160        -0.756955
 C         2.537744         1.413713        -1.412925
 O         1.243805         1.021657        -1.855502
 C         1.266375         0.484472        -0.442942
 C         0.157768        -0.353428         0.157492
 H         0.918486         3.146996         1.352835
 H         1.831876         4.049040         0.128087
 H         0.376602         3.238791        -0.386776
 H         3.878072         1.985586         0.917720
 H         2.708185         1.121959         1.962859
 H         2.840297        -0.956004        -1.296259
 H         3.225170         1.981406        -2.053195
 H         0.640641        -0.667858         1.130610
 H        -0.896458         0.007745         0.201984
 H         0.263448        -1.307681        -0.389456
