19
Iteration:  4623charge 0 multiplicity 1
 C         1.147923         2.939936         0.338343
 C         2.047087         1.763963         0.012989
 C         3.093590         1.317589         1.123005
 O         3.400373         0.003695         0.462763
 C         2.726102        -0.059894        -0.674534
 C         2.581409         1.427242        -1.462392
 O         1.199076         0.946813        -1.872083
 C         1.357665         0.482825        -0.500146
 C         0.153396        -0.182728         0.182351
 H         0.668343         2.753265         1.314610
 H         1.628934         4.050285         0.303843
 H         0.366404         3.181877        -0.336720
 H         4.055856         1.871352         1.034197
 H         2.772707         1.285531         2.158558
 H         3.058002        -1.070012        -1.094520
 H         3.222266         1.858718        -2.182758
 H         0.413402        -0.576981         1.136870
 H        -0.718390         0.481952         0.222752
 H        -0.263958        -1.130731        -0.429637
