19
Iteration:  2941
 C         1.334224         3.097604         0.214712
 C         1.967240         1.752746         0.031481
 C         3.049413         1.296497         1.041125
 O         3.641776         0.166822         0.420236
 C         2.781038        -0.011271        -0.657239
 C         2.570639         1.260205        -1.367891
 O         1.128871         0.905023        -1.809880
 C         1.199564         0.381031        -0.465421
 C        -0.030091        -0.282308         0.220063
 H         0.812262         3.090924         1.071177
 H         2.120605         3.824566         0.355750
 H         0.618415         3.338977        -0.622768
 H         3.764546         2.070987         1.216203
 H         2.652737         0.933561         1.968045
 H         3.117374        -0.829285        -1.229433
 H         3.088945         2.067284        -1.903640
 H         0.267311        -0.660821         1.205587
 H        -0.870744         0.412519         0.050599
 H        -0.283404        -1.152643        -0.263444
