19
Iteration:    70
 C         1.291041         3.122466         0.186291
 C         1.967335         1.760869         0.043692
 C         2.998480         1.350209         1.023832
 O         3.584993         0.182911         0.442265
 C         2.725500        -0.092847        -0.654985
 C         2.522114         1.331171        -1.353276
 O         1.191178         0.911894        -1.806185
 C         1.265811         0.344852        -0.422945
 C         0.094941        -0.346373         0.164356
 H         0.501432         3.101609         0.929917
 H         2.059190         3.844423         0.577778
 H         0.900081         3.513184        -0.738412
 H         3.768565         2.089352         1.185579
 H         2.612708         1.119186         2.086044
 H         3.070913        -1.025879        -1.182670
 H         3.151157         1.925382        -2.138119
 H         0.404865        -0.908699         1.038128
 H        -0.612149         0.423645         0.533212
 H        -0.575302        -1.062741        -0.495852
