19
Iteration:   526
 C         1.215602         2.982390         0.406465
 C         2.050112         1.813321         0.010589
 C         3.219820         1.402105         0.944081
 O         3.387228        -0.043476         0.544570
 C         2.648149        -0.042923        -0.683077
 C         2.523602         1.339551        -1.459642
 O         1.200847         1.023083        -1.927681
 C         1.236475         0.499461        -0.435613
 C         0.168137        -0.330128         0.197364
 H         0.723210         2.881994         1.380768
 H         1.967324         3.862568         0.553983
 H         0.460980         3.224444        -0.409157
 H         4.127602         1.978516         0.760373
 H         2.946841         1.402127         2.104716
 H         2.716444        -1.002996        -1.289839
 H         3.189526         1.948667        -2.113065
 H         0.451153        -0.660893         1.237643
 H        -0.797163         0.158673         0.397544
 H         0.137669        -1.249978        -0.441743
