19
Iteration:  1869
 C         1.289443         3.092657         0.120421
 C         1.935457         1.701512         0.033453
 C         3.020873         1.278150         1.104708
 O         3.761225         0.166729         0.390364
 C         2.774015        -0.069530        -0.654157
 C         2.483134         1.302878        -1.336301
 O         1.130765         0.921516        -1.828490
 C         1.272291         0.400531        -0.338891
 C        -0.008066        -0.226255         0.182064
 H         0.565060         3.014870         0.899261
 H         2.095948         3.830450         0.469519
 H         0.670157         3.429135        -0.808215
 H         3.638731         2.129282         1.310514
 H         2.574573         0.967250         2.153647
 H         2.952295        -0.914355        -1.242765
 H         3.142681         1.834689        -2.103844
 H         0.085181        -0.564238         1.244560
 H        -0.928284         0.348455         0.039398
 H        -0.184635        -1.066279        -0.470096
