19
Iteration:  1171charge 0 multiplicity 1
 C         1.255352         3.057012         0.195911
 C         2.014229         1.763837         0.007784
 C         2.916110         1.237126         1.060391
 O         3.667208         0.130708         0.407261
 C         2.777681        -0.044035        -0.709397
 C         2.516530         1.354615        -1.447693
 O         1.140684         0.838722        -1.799821
 C         1.302554         0.460150        -0.402484
 C         0.111031        -0.157398         0.306170
 H         0.686627         3.071967         1.115637
 H         1.940028         3.969824         0.221741
 H         0.509083         3.058420        -0.607880
 H         3.756097         1.715207         1.527619
 H         2.120320         0.787480         1.838891
 H         2.967479        -1.017983        -1.285023
 H         2.930748         2.018412        -2.287395
 H         0.592939        -0.778596         1.162401
 H        -0.571139         0.645757         0.713162
 H        -0.491034        -0.855557        -0.431560
