19
Iteration:  2970
 C         1.221467         2.995914         0.204524
 C         2.023663         1.778107        -0.000802
 C         3.024245         1.259295         1.033157
 O         3.587496         0.065579         0.493958
 C         2.715565        -0.022047        -0.645526
 C         2.488330         1.354581        -1.435824
 O         1.129179         0.881436        -1.797892
 C         1.334900         0.455755        -0.405458
 C         0.173703        -0.141950         0.200435
 H         0.753626         3.084635         1.308813
 H         1.919119         3.816353         0.115179
 H         0.423122         3.047062        -0.601764
 H         3.838285         1.977284         1.234324
 H         2.421810         0.937491         1.955742
 H         2.936054        -0.975495        -1.299862
 H         3.033881         1.946773        -2.212670
 H         0.337436        -0.669354         1.120675
 H        -0.641434         0.603742         0.290396
 H        -0.186047        -0.897202        -0.632963
