19
Iteration:  4977charge 0 multiplicity 1
 C         1.246985         3.029616         0.275924
 C         2.005714         1.735218         0.127865
 C         3.054755         1.303416         1.083495
 O         3.575273         0.127081         0.397976
 C         2.753619        -0.042734        -0.808892
 C         2.598001         1.298179        -1.370443
 O         1.192982         0.908449        -1.829886
 C         1.325340         0.413983        -0.425515
 C        -0.010500        -0.212687         0.185308
 H         0.312496         2.973833         0.894310
 H         1.768447         3.904221         0.507230
 H         0.664390         3.255761        -0.665954
 H         3.729260         2.142005         1.450554
 H         2.570724         0.968205         2.058646
 H         2.789388        -0.905623        -1.489680
 H         3.279988         2.020043        -2.039448
 H         0.302913        -0.791987         1.149055
 H        -0.734202         0.565780         0.488418
 H        -0.571462        -0.823011        -0.440834
