19
Iteration:   671charge 0 multiplicity 1
 C         1.188814         2.971879         0.445933
 C         2.036086         1.848986         0.026570
 C         3.215569         1.398119         0.956141
 O         3.448681         0.021891         0.499687
 C         2.559924        -0.117368        -0.616454
 C         2.571767         1.287457        -1.462770
 O         1.235151         0.988891        -1.993104
 C         1.234787         0.509765        -0.466859
 C         0.141522        -0.261767         0.224866
 H         0.797611         2.796591         1.506060
 H         1.774564         3.940507         0.492920
 H         0.229742         3.215412        -0.231685
 H         4.038270         2.007934         0.712408
 H         3.189002         1.432148         2.150940
 H         2.627984        -0.932049        -1.213922
 H         3.267632         1.748309        -2.203706
 H         0.666133        -0.952367         0.852929
 H        -0.574963         0.103279         0.974526
 H        -0.260750        -0.993260        -0.624750
