19
Iteration:  2493
 C         1.220248         3.052933         0.297881
 C         1.985656         1.794466         0.053064
 C         3.152672         1.322525         0.941347
 O         3.543142         0.027796         0.500227
 C         2.677961        -0.080661        -0.693922
 C         2.500362         1.342364        -1.371749
 O         1.192992         0.922859        -1.848324
 C         1.263067         0.460599        -0.420657
 C         0.105260        -0.244301         0.210471
 H         0.679029         2.843922         1.175008
 H         1.902990         3.961220         0.324438
 H         0.374893         3.245697        -0.447032
 H         3.931718         2.122243         0.690310
 H         2.972949         1.590820         2.014991
 H         2.782760        -0.930923        -1.296017
 H         3.272384         1.764909        -2.071643
 H         0.278871        -0.489495         1.209016
 H        -0.745345         0.406890        -0.116390
 H        -0.009936        -1.323704        -0.289396
