19
Iteration:  1661charge 0 multiplicity 1
 C         1.192854         3.054653         0.285188
 C         1.980263         1.814642        -0.021317
 C         3.139647         1.407333         0.955963
 O         3.454189        -0.003422         0.557684
 C         2.691386        -0.109050        -0.609488
 C         2.582642         1.297379        -1.420983
 O         1.253626         0.972822        -1.864660
 C         1.181380         0.523133        -0.516638
 C         0.152146        -0.337772         0.233259
 H         0.920171         3.110363         1.269564
 H         1.732724         4.027677         0.176403
 H         0.158243         2.958461        -0.219435
 H         4.059400         2.025925         0.805862
 H         2.961117         1.382050         1.994209
 H         2.866868        -0.993124        -1.158382
 H         3.213498         1.835563        -2.304333
 H         0.496130        -0.117691         1.308820
 H        -0.899093        -0.048839         0.181535
 H         0.200945        -1.314857        -0.197562
