19
Iteration:  1759charge 0 multiplicity 1
 C         1.179963         2.981290         0.199322
 C         2.032995         1.786890         0.001272
 C         3.100052         1.370651         1.042258
 O         3.522763         0.074869         0.491151
 C         2.743815        -0.058940        -0.683480
 C         2.531801         1.296890        -1.392554
 O         1.136156         0.896139        -1.816992
 C         1.312703         0.424057        -0.391842
 C         0.135583        -0.203804         0.198615
 H         0.583712         2.910153         1.058096
 H         1.797514         3.928369         0.469663
 H         0.512536         3.241100        -0.749984
 H         3.910084         2.093955         1.010060
 H         2.658581         1.237801         2.119992
 H         3.027492        -0.839087        -1.258430
 H         3.211947         1.824867        -2.153341
 H         0.117682        -0.766130         1.168095
 H        -0.471906         0.682508         0.223157
 H        -0.250872        -0.838582        -0.536778
