19
Iteration:   379charge 0 multiplicity 1
 C         1.271075         3.057457         0.334938
 C         2.022721         1.790291         0.025085
 C         3.183216         1.386811         0.926521
 O         3.350564        -0.052539         0.568903
 C         2.707578        -0.013272        -0.725042
 C         2.521471         1.376406        -1.387505
 O         1.200759         1.006562        -1.843739
 C         1.245002         0.441437        -0.437881
 C         0.166872        -0.383557         0.170140
 H         0.556787         2.881913         1.182576
 H         1.906493         3.849684         0.574607
 H         0.657966         3.376964        -0.574785
 H         4.018049         2.004138         0.546995
 H         3.111414         1.529905         2.018224
 H         2.770262        -0.888695        -1.239066
 H         3.047716         2.080782        -2.048731
 H         0.481137        -0.509536         1.190107
 H        -0.808005         0.012166        -0.040084
 H         0.097393        -1.290344        -0.266572
