19
Iteration:   849
 C         1.237711         3.010059         0.225213
 C         2.084889         1.767147         0.037683
 C         3.071480         1.283271         1.085752
 O         3.567633         0.084048         0.375322
 C         2.739789        -0.042244        -0.742315
 C         2.547293         1.350164        -1.420701
 O         1.092177         0.964818        -1.742944
 C         1.328741         0.357075        -0.414621
 C         0.068980        -0.164352         0.195583
 H         0.706136         2.823506         1.267201
 H         1.761008         3.934078         0.408399
 H         0.523163         3.055293        -0.538632
 H         3.846304         1.933682         1.278652
 H         2.447783         1.050095         2.048438
 H         3.053310        -0.979131        -1.317801
 H         2.903625         1.884364        -2.245919
 H         0.284117        -0.697295         1.239614
 H        -0.641802         0.679596         0.247762
 H        -0.301143        -1.017147        -0.290606
