19
Iteration:  3779charge 0 multiplicity 1
 C         1.362414         3.168245         0.234292
 C         1.926574         1.741207         0.092251
 C         2.973224         1.315876         1.019611
 O         3.545030         0.009630         0.375878
 C         2.756356        -0.001500        -0.695236
 C         2.534438         1.397652        -1.287593
 O         1.192904         0.905772        -1.775971
 C         1.254675         0.410881        -0.440109
 C         0.105997        -0.311160         0.162841
 H         0.626894         3.091676         0.964617
 H         2.125557         4.010873         0.220857
 H         0.719478         3.379323        -0.647572
 H         3.862751         1.962012         1.073811
 H         2.736811         0.850702         1.981593
 H         2.842030        -0.816456        -1.394080
 H         3.110537         2.006023        -1.949615
 H         0.348217        -0.789562         1.183178
 H        -0.812783         0.288431         0.292125
 H        -0.248482        -1.105023        -0.535915
