19
Iteration:   694
 C         1.233233         3.011149         0.298720
 C         2.044613         1.815657         0.004557
 C         3.060084         1.295086         0.970323
 O         3.448246         0.005749         0.455830
 C         2.770826        -0.055279        -0.773667
 C         2.577475         1.385663        -1.414438
 O         1.135053         0.944426        -1.789055
 C         1.315789         0.489329        -0.439466
 C         0.146421        -0.249630         0.260939
 H         0.689875         2.951109         1.335753
 H         1.853265         3.917230         0.342295
 H         0.423903         3.222885        -0.461881
 H         3.822999         1.990287         1.247748
 H         2.520001         0.994209         1.966282
 H         2.913735        -0.938115        -1.406447
 H         3.176857         1.906557        -2.153933
 H         0.431317        -1.006021         1.027481
 H        -0.451827         0.422145         0.904258
 H        -0.411999        -0.785976        -0.539929
