19
Iteration:  4511charge 0 multiplicity 1
 C         1.261672         3.074870         0.290654
 C         2.000646         1.766742        -0.008987
 C         3.122937         1.322328         1.079884
 O         3.460370        -0.000035         0.548080
 C         2.679050        -0.049122        -0.665218
 C         2.600783         1.356096        -1.383419
 O         1.131466         1.024272        -1.918023
 C         1.205531         0.555682        -0.486967
 C         0.209165        -0.415825         0.121814
 H         0.975767         2.862093         1.311166
 H         2.032392         3.975678         0.252536
 H         0.289449         3.110611        -0.340777
 H         3.966034         1.949441         1.320289
 H         2.591025         1.369674         2.011237
 H         2.724938        -0.983328        -1.082894
 H         3.301271         1.973389        -1.963246
 H         0.524511        -0.583958         1.207960
 H        -0.806195         0.063640         0.223365
 H         0.051559        -1.270913        -0.581254
