19
Iteration:  1991
 C         1.310105         3.126488         0.107217
 C         2.024471         1.800145         0.102734
 C         3.052614         1.263161         1.143603
 O         3.574268         0.157966         0.450655
 C         2.769957         0.026899        -0.729114
 C         2.494424         1.359206        -1.397529
 O         1.067077         0.860815        -1.761460
 C         1.300747         0.331316        -0.402111
 C         0.063325        -0.303422         0.161787
 H         0.881432         3.495629         1.005277
 H         2.128501         3.952725        -0.052616
 H         0.604879         3.045935        -0.697361
 H         3.817811         1.861733         1.548032
 H         2.416430         0.878356         2.011360
 H         3.128627        -0.877326        -1.374943
 H         3.208839         1.790458        -2.207167
 H         0.308973        -0.903384         1.053936
 H        -0.755835         0.418178         0.372663
 H        -0.110484        -1.026221        -0.702196
