19
Iteration:   999
 C         1.259767         3.008621         0.219848
 C         2.043668         1.683170         0.064633
 C         3.089352         1.268078         1.124208
 O         3.645841         0.165914         0.357679
 C         2.748807        -0.000831        -0.762029
 C         2.504270         1.293475        -1.429955
 O         1.083687         0.898586        -1.739350
 C         1.311043         0.373732        -0.375125
 C         0.026306        -0.131078         0.170962
 H         0.603286         2.954641         1.190245
 H         1.919158         3.901544         0.143151
 H         0.550794         3.114187        -0.582170
 H         3.964425         1.941065         1.458190
 H         2.518808         1.042143         2.008774
 H         2.967113        -1.036404        -1.396773
 H         2.963177         1.973405        -2.112253
 H         0.066566        -0.067126         1.275088
 H        -0.768898         0.527279        -0.090072
 H        -0.168558        -1.145971        -0.121587
