19
Iteration:  3380
 C         1.256264         2.988593         0.297749
 C         1.984092         1.717675         0.030038
 C         3.113422         1.351898         1.004324
 O         3.603392         0.122730         0.473411
 C         2.738660        -0.088495        -0.665994
 C         2.591531         1.303502        -1.375194
 O         1.102346         0.955997        -1.821786
 C         1.266145         0.416941        -0.448217
 C         0.046534        -0.200961         0.133886
 H         0.560378         3.073245         1.112304
 H         1.969801         3.866849         0.410895
 H         0.694477         3.137509        -0.605157
 H         3.886364         2.095639         1.182824
 H         2.683789         0.970937         1.994164
 H         2.994943        -1.096279        -1.163222
 H         3.050292         1.922347        -2.117801
 H         0.249229        -0.749753         1.125051
 H        -0.764161         0.544222         0.324613
 H        -0.491712        -0.714129        -0.591217
