19
Iteration:  2027charge 0 multiplicity 1
 C         1.282096         3.111926         0.210128
 C         1.955869         1.742502         0.041559
 C         3.120424         1.366562         1.050475
 O         3.578371         0.134769         0.468299
 C         2.694032        -0.053029        -0.665426
 C         2.541180         1.294136        -1.340957
 O         1.114065         0.926914        -1.834686
 C         1.259765         0.447498        -0.437131
 C         0.085788        -0.357404         0.172399
 H         0.498888         3.205634         1.030262
 H         2.109600         3.760256         0.209938
 H         0.800053         3.432452        -0.652949
 H         3.896116         2.174393         1.067206
 H         2.746196         1.187542         2.033213
 H         3.037098        -0.902905        -1.208233
 H         3.305016         1.574886        -2.011623
 H         0.389873        -0.849411         1.006688
 H        -0.844471         0.112439         0.365477
 H        -0.208733        -1.125302        -0.530497
