19
Iteration:  4583
 C         1.206889         2.999457         0.264652
 C         1.998075         1.740156         0.096697
 C         3.027507         1.311150         1.082954
 O         3.564679         0.120683         0.381145
 C         2.772190        -0.059503        -0.677207
 C         2.615618         1.292335        -1.379919
 O         1.220742         0.987153        -1.835383
 C         1.261699         0.406045        -0.438269
 C         0.012951        -0.235034         0.132674
 H         0.507898         3.004310         1.155857
 H         1.946682         3.745021         0.405781
 H         0.622821         3.179362        -0.624825
 H         3.822169         2.059195         1.345428
 H         2.797951         0.860974         2.081672
 H         2.850099        -1.064568        -1.215476
 H         3.113427         2.136836        -1.934615
 H         0.208099        -0.753309         1.093781
 H        -0.651195         0.599223         0.424523
 H        -0.437315        -0.766842        -0.630313
