19
Iteration:  2454charge 0 multiplicity 1
 C         1.223322         2.951147         0.272528
 C         2.053489         1.778720        -0.016317
 C         3.121391         1.420386         0.917398
 O         3.495193         0.032575         0.555990
 C         2.728721        -0.033173        -0.697886
 C         2.531093         1.298179        -1.396839
 O         1.166628         0.944953        -1.831397
 C         1.281873         0.457693        -0.398536
 C         0.109594        -0.207427         0.180385
 H         0.568975         2.599413         1.208087
 H         1.844585         3.884748         0.553203
 H         0.360045         2.951233        -0.323558
 H         3.991317         2.072421         0.865776
 H         3.101815         1.155395         1.998071
 H         2.799463        -1.028273        -1.294527
 H         2.993164         1.874746        -2.200947
 H         0.203179        -0.617301         1.287759
 H        -0.651535         0.594983         0.216645
 H        -0.310088        -0.932075        -0.415694
