19
Iteration:  3542
 C         1.164063         2.946221         0.282533
 C         1.998259         1.776087         0.040464
 C         3.220946         1.367567         0.984879
 O         3.529084        -0.012319         0.515646
 C         2.731806        -0.062343        -0.633208
 C         2.527520         1.347597        -1.373993
 O         1.201128         0.996804        -1.902492
 C         1.235623         0.426014        -0.439933
 C         0.064270        -0.191029         0.145855
 H         0.648879         2.829434         1.275134
 H         1.803985         3.751869         0.484764
 H         0.389849         3.155987        -0.538310
 H         4.045109         2.106556         0.718471
 H         3.001019         1.475624         2.079339
 H         2.910344        -1.043994        -1.013747
 H         3.091756         1.879257        -2.117321
 H         0.363406        -0.647298         1.161566
 H        -0.788182         0.472764         0.344879
 H        -0.375873        -0.875054        -0.469197
