19
Iteration:  1515charge 0 multiplicity 1
 C         1.186273         3.005052         0.271466
 C         2.045714         1.836695         0.003063
 C         3.169745         1.428531         0.913906
 O         3.425513         0.000576         0.589252
 C         2.674723        -0.101690        -0.648208
 C         2.525929         1.279247        -1.384891
 O         1.192846         0.972412        -1.890679
 C         1.264991         0.480585        -0.447349
 C         0.201688        -0.278010         0.224994
 H         0.435801         2.584279         0.993025
 H         1.637689         3.897997         0.611309
 H         0.503656         3.190550        -0.671974
 H         4.004400         1.994622         0.649278
 H         2.945161         1.586169         2.018033
 H         2.926960        -0.910807        -1.366876
 H         3.273852         1.741294        -2.063156
 H         0.566960        -0.515569         1.172384
 H        -0.699296         0.357450         0.499901
 H        -0.237696        -1.118516        -0.395027
