19
Iteration:  4164charge 0 multiplicity 1
 C         1.325169         3.129589         0.210765
 C         2.021286         1.691995         0.035994
 C         2.964894         1.232970         1.093712
 O         3.656809         0.143680         0.499946
 C         2.678166        -0.078571        -0.727852
 C         2.438568         1.325839        -1.421445
 O         1.137728         1.032868        -1.768120
 C         1.277785         0.477764        -0.447593
 C         0.163543        -0.341225         0.148365
 H         0.707506         3.235819         1.125730
 H         2.205345         3.885000        -0.019644
 H         0.477849         3.143942        -0.560393
 H         3.697983         1.844217         1.586738
 H         2.359118         0.867872         1.937486
 H         2.798914        -1.003840        -1.170492
 H         3.154634         1.708405        -2.162145
 H         0.334807        -0.790416         1.139021
 H        -0.743770         0.312181         0.156192
 H        -0.052367        -1.100078        -0.624457
