19
Iteration:  4955charge 0 multiplicity 1
 C         1.170991         2.933002         0.223471
 C         2.025049         1.790901         0.009583
 C         3.020205         1.244243         1.068547
 O         3.644805         0.077287         0.393589
 C         2.742213        -0.090401        -0.612789
 C         2.559912         1.267217        -1.371037
 O         1.178494         1.076573        -1.852326
 C         1.261849         0.487430        -0.419440
 C         0.085585        -0.202184         0.185820
 H         0.407382         2.879593         1.019438
 H         1.716498         3.807412         0.416136
 H         0.427957         3.248844        -0.528863
 H         3.745408         2.084333         1.364038
 H         2.635436         0.860037         2.044178
 H         2.915482        -1.092229        -1.047337
 H         3.254422         1.792030        -2.209737
 H         0.495056        -0.781434         1.112368
 H        -0.675349         0.534743         0.491551
 H        -0.395842        -0.772947        -0.519225
