19
Iteration:  3450charge 0 multiplicity 1
 C         1.334072         3.073932         0.238574
 C         2.022262         1.742608         0.077404
 C         3.038357         1.307769         0.988089
 O         3.463425         0.024073         0.515419
 C         2.793728        -0.022188        -0.742831
 C         2.496239         1.401946        -1.392300
 O         1.166782         1.015622        -1.862875
 C         1.214770         0.415849        -0.494151
 C         0.150313        -0.338927         0.276614
 H         0.852418         3.393309         1.176852
 H         2.066962         3.871633        -0.014259
 H         0.541409         3.032315        -0.493839
 H         3.954054         1.950748         1.234183
 H         2.436423         1.138818         1.972892
 H         2.940494        -1.046671        -1.120710
 H         3.225140         1.991314        -2.007845
 H         0.417796        -0.522656         1.272319
 H        -0.852886         0.088051         0.237359
 H        -0.182136        -1.321024        -0.298892
