19
Iteration:  3025charge 0 multiplicity 1
 C         1.222816         2.960151         0.198749
 C         2.011145         1.743899         0.048488
 C         3.069743         1.392112         0.959275
 O         3.504214         0.015896         0.570806
 C         2.735361        -0.105823        -0.708548
 C         2.521161         1.353751        -1.356987
 O         1.165621         0.978091        -1.881343
 C         1.272431         0.482786        -0.463524
 C         0.123689        -0.206463         0.237800
 H         0.654316         2.873095         1.239448
 H         1.953251         3.715582         0.276166
 H         0.556490         3.228480        -0.664313
 H         3.955240         2.058783         0.791670
 H         2.990175         1.377119         2.093854
 H         3.042542        -1.074399        -1.256508
 H         3.169599         2.031210        -1.956820
 H         0.498676        -0.674858         1.143864
 H        -0.745111         0.312266         0.659406
 H        -0.191658        -1.015683        -0.524008
