19
Iteration:   461charge 0 multiplicity 1
 C         1.239366         3.046228         0.247214
 C         2.020767         1.734761         0.136676
 C         3.059774         1.218498         1.141306
 O         3.673142         0.135162         0.326341
 C         2.842972        -0.009305        -0.747083
 C         2.462102         1.338089        -1.368723
 O         1.144768         0.875263        -1.766833
 C         1.246980         0.380761        -0.434035
 C        -0.030404        -0.128230         0.137159
 H         0.681636         3.324337         1.138725
 H         2.043872         3.886349         0.075241
 H         0.623622         2.995623        -0.684039
 H         3.673766         1.990608         1.558332
 H         2.577741         0.708512         2.067702
 H         3.171857        -0.858033        -1.444836
 H         2.977198         1.922154        -2.171720
 H         0.205779        -0.937749         0.908370
 H        -0.442751         0.612396         0.855267
 H        -0.611805        -0.601501        -0.788054
