19
Iteration:  2714charge 0 multiplicity 1
 C         1.279476         3.036367         0.201170
 C         2.056925         1.785353         0.075955
 C         3.100341         1.280356         1.045394
 O         3.485684         0.109811         0.464273
 C         2.683516        -0.016401        -0.693841
 C         2.534909         1.321122        -1.414118
 O         1.171495         0.939563        -1.809076
 C         1.232912         0.464763        -0.463517
 C         0.132921        -0.340749         0.216592
 H         0.829873         3.181602         1.231346
 H         2.006176         3.982301         0.196070
 H         0.479330         3.151829        -0.534834
 H         3.958096         1.997026         1.115204
 H         2.555507         1.082389         1.974103
 H         2.769140        -0.860713        -1.276701
 H         3.032449         1.812374        -2.227474
 H         0.470330        -0.238072         1.312992
 H        -0.871555         0.195919         0.187426
 H         0.084654        -1.284532        -0.255639
