19
Iteration:   394charge 0 multiplicity 1
 C         1.203388         3.048891         0.301146
 C         2.011300         1.816405        -0.020984
 C         3.137165         1.284689         0.887069
 O         3.300159        -0.095794         0.566698
 C         2.717529        -0.034314        -0.700665
 C         2.538712         1.503215        -1.389403
 O         1.150276         0.933108        -1.820394
 C         1.347327         0.539202        -0.437217
 C         0.257768        -0.302416         0.195179
 H         0.591062         2.896370         1.234413
 H         1.874328         4.031115         0.518499
 H         0.587304         3.301368        -0.517751
 H         4.103891         1.720349         0.912100
 H         2.827638         1.315577         2.031549
 H         3.204212        -0.850895        -1.431468
 H         3.164361         1.878648        -2.185054
 H         0.509026        -0.661171         1.363306
 H        -0.739886         0.216445         0.364269
 H         0.183648        -1.332644        -0.434550
