19
Iteration:  3687
 C         1.170418         2.991523         0.301749
 C         1.943861         1.713874         0.082144
 C         3.257008         1.364860         0.922207
 O         3.457951        -0.015241         0.523513
 C         2.701854        -0.052543        -0.689343
 C         2.594930         1.358513        -1.316907
 O         1.198236         0.988397        -1.850615
 C         1.238835         0.422146        -0.485576
 C         0.095655        -0.191415         0.165215
 H         0.492024         2.906491         1.171784
 H         1.872939         3.798678         0.456298
 H         0.508640         3.329014        -0.429048
 H         4.081875         2.108410         0.653019
 H         2.886123         1.343495         1.974299
 H         2.928006        -0.985361        -1.335191
 H         3.199599         1.981705        -2.045505
 H         0.502556        -0.563146         1.088123
 H        -0.787723         0.485347         0.285665
 H        -0.134567        -1.082030        -0.519174
