19
Iteration:  3819charge 0 multiplicity 1
 C         1.295327         3.040649         0.268596
 C         2.076287         1.827436        -0.010989
 C         3.140180         1.409705         0.961684
 O         3.404163        -0.008928         0.515450
 C         2.706146        -0.099610        -0.687060
 C         2.539924         1.329524        -1.382442
 O         1.154738         1.064073        -1.772201
 C         1.227239         0.509088        -0.431067
 C         0.122642        -0.431113         0.143962
 H         0.661221         2.780451         1.182991
 H         1.923761         3.874650         0.807498
 H         0.801582         3.315354        -0.610872
 H         4.022229         2.136131         0.884255
 H         2.745719         1.556196         2.036355
 H         2.906823        -1.054727        -1.093903
 H         3.208093         1.820376        -2.170764
 H         0.327675        -0.805954         1.091200
 H        -0.872177        -0.028184         0.101052
 H         0.115408        -1.319569        -0.652386
