19
Iteration:  2197charge 0 multiplicity 1
 C         1.258880         3.077739         0.279719
 C         2.056460         1.807714        -0.007221
 C         3.158165         1.467316         0.955701
 O         3.396143         0.012482         0.513283
 C         2.660755        -0.073870        -0.645967
 C         2.514945         1.310928        -1.362057
 O         1.218004         0.921389        -1.884659
 C         1.206565         0.457632        -0.406827
 C         0.175215        -0.375352         0.213395
 H         0.649070         3.139220         1.143676
 H         2.026420         3.939828         0.381609
 H         0.412237         3.138187        -0.551949
 H         4.094282         2.089002         0.878741
 H         2.943125         1.543628         2.085229
 H         2.810928        -0.877724        -1.386769
 H         3.088462         1.968147        -2.107788
 H         0.602255        -0.774788         1.165478
 H        -0.757367         0.073366         0.535161
 H         0.008668        -1.069017        -0.703424
