19
Iteration:  1602charge 0 multiplicity 1
 C         1.268752         3.096419         0.148562
 C         2.022163         1.777675         0.005592
 C         3.041948         1.341312         1.051284
 O         3.619976         0.086848         0.479020
 C         2.720962        -0.065879        -0.660744
 C         2.519094         1.329021        -1.327539
 O         1.112290         0.897592        -1.818142
 C         1.286933         0.444957        -0.418495
 C         0.111551        -0.288090         0.197228
 H         0.709396         3.143360         1.138212
 H         1.856364         3.948918        -0.120132
 H         0.503425         3.189683        -0.710355
 H         3.852727         1.929545         1.357258
 H         2.409122         0.973691         1.960159
 H         2.974907        -1.000188        -1.277647
 H         3.059039         1.916550        -1.997591
 H         0.304012        -1.011341         0.945820
 H        -0.483200         0.549769         0.588091
 H        -0.472657        -0.835626        -0.588171
