19
Iteration:  3321charge 0 multiplicity 1
 C         1.239796         3.013643         0.242762
 C         2.013900         1.742426         0.005372
 C         3.027037         1.339508         1.036687
 O         3.538798         0.091201         0.469424
 C         2.684409        -0.080541        -0.749944
 C         2.592241         1.283857        -1.382398
 O         1.181152         1.004894        -1.812981
 C         1.261983         0.402680        -0.412487
 C         0.128826        -0.199453         0.186333
 H         0.726518         2.803266         1.255584
 H         1.948454         3.800847         0.358213
 H         0.490720         3.321159        -0.603855
 H         3.777324         2.065902         1.356860
 H         2.537352         0.994717         1.913548
 H         2.823454        -1.032523        -1.216021
 H         3.181552         1.860915        -2.142384
 H         0.391172        -0.634752         1.129248
 H        -0.556153         0.609390         0.451413
 H        -0.135182        -1.168534        -0.307632
