19
Iteration:  4160charge 0 multiplicity 1
 C         1.355902         3.121208         0.210045
 C         2.033845         1.737009         0.004669
 C         2.966272         1.253281         1.141996
 O         3.644026         0.116996         0.456580
 C         2.690239        -0.056240        -0.704888
 C         2.416105         1.319878        -1.380864
 O         1.122644         1.023046        -1.809363
 C         1.303390         0.431690        -0.437305
 C         0.146006        -0.337646         0.141809
 H         0.746728         3.179495         1.075460
 H         2.130292         3.852791         0.074167
 H         0.538845         3.293244        -0.551807
 H         3.658632         2.010529         1.561688
 H         2.331131         0.902890         1.960142
 H         2.906078        -1.090990        -1.181301
 H         3.095705         1.853324        -1.985309
 H         0.326493        -0.837048         1.202387
 H        -0.825898         0.249204         0.177787
 H        -0.030263        -1.098124        -0.577310
