19
Iteration:  1346charge 0 multiplicity 1
 C         1.098186         2.996699         0.180571
 C         1.989920         1.778662         0.023067
 C         3.126876         1.378718         0.965985
 O         3.427850         0.020465         0.549213
 C         2.690258        -0.063828        -0.721415
 C         2.631149         1.245842        -1.450313
 O         1.203268         1.082928        -1.892999
 C         1.297461         0.455083        -0.419207
 C         0.206856        -0.288182         0.359828
 H         0.514815         2.751705         1.140492
 H         1.750231         3.956128         0.250399
 H         0.534882         3.274433        -0.721183
 H         4.023773         1.942830         0.901050
 H         2.896020         1.374987         2.095212
 H         2.730910        -1.102758        -1.237898
 H         3.374535         1.778778        -2.082687
 H         0.509665        -0.936438         1.286932
 H        -0.524580         0.443400         0.755353
 H        -0.317375        -0.988922        -0.334332
