19
Iteration:  1906
 C         1.147104         2.974755         0.244321
 C         1.997929         1.769495         0.000537
 C         3.127249         1.424120         0.977746
 O         3.482044         0.016242         0.542294
 C         2.725047        -0.035126        -0.715969
 C         2.549646         1.318862        -1.442539
 O         1.206268         0.902765        -1.855834
 C         1.327782         0.441134        -0.358952
 C         0.102706        -0.180440         0.229799
 H         0.458916         2.572155         1.120795
 H         1.691922         3.825191         0.718128
 H         0.570905         3.370296        -0.520588
 H         4.020244         2.171516         0.801434
 H         3.018563         1.250982         2.024685
 H         2.970482        -1.024281        -1.322497
 H         3.282458         1.805634        -2.131253
 H         0.144345        -0.447011         1.224821
 H        -0.726072         0.513055         0.072082
 H        -0.093154        -1.116643        -0.371795
