19
Iteration:  2966charge 0 multiplicity 1
 C         1.221342         3.004505         0.214639
 C         2.012586         1.795013         0.018059
 C         3.006475         1.259549         1.056373
 O         3.593174         0.083649         0.477106
 C         2.715931        -0.060268        -0.677045
 C         2.461355         1.359215        -1.446334
 O         1.147204         0.889359        -1.784513
 C         1.361457         0.432787        -0.403110
 C         0.147888        -0.153439         0.202174
 H         0.783768         3.139086         1.181274
 H         2.033177         3.811667         0.132912
 H         0.509549         3.065187        -0.540146
 H         3.820512         2.041908         1.239687
 H         2.403889         1.025764         1.933940
 H         2.936446        -0.903882        -1.263623
 H         3.077853         1.783633        -2.233788
 H         0.363759        -0.770633         1.124462
 H        -0.593557         0.654964         0.127344
 H        -0.222352        -0.885044        -0.538866
