19
Iteration:  4877
 C         1.332602         3.109852         0.336186
 C         2.011605         1.756941         0.047399
 C         3.087376         1.348718         1.054275
 O         3.487362         0.097480         0.467253
 C         2.650672        -0.048361        -0.737769
 C         2.553510         1.257552        -1.405846
 O         1.200744         0.985497        -1.854061
 C         1.238445         0.491620        -0.401098
 C         0.098159        -0.418217         0.091205
 H         0.799731         3.101769         1.301475
 H         1.886393         3.991551         0.186500
 H         0.570612         3.352118        -0.388470
 H         3.903473         2.147101         1.242231
 H         2.575463         1.290676         2.059556
 H         2.795197        -1.048386        -1.013968
 H         3.271544         1.947745        -2.036038
 H         0.343334        -0.689706         1.215455
 H        -0.874600         0.089435         0.038805
 H         0.131440        -1.305833        -0.415475
