19
Iteration:   798
 C         1.249537         3.011109         0.522874
 C         2.037249         1.785358        -0.020903
 C         3.261510         1.403268         0.828266
 O         3.311416         0.022414         0.564481
 C         2.705368        -0.039651        -0.730978
 C         2.516542         1.373693        -1.401813
 O         1.202791         0.931106        -1.870717
 C         1.280491         0.386635        -0.451903
 C         0.101460        -0.290798         0.186216
 H         0.837097         2.903481         1.496276
 H         1.872974         3.944816         0.511150
 H         0.388193         3.234423        -0.214484
 H         4.238205         1.936823         0.381920
 H         3.071786         1.749590         1.800191
 H         3.000456        -0.868446        -1.271905
 H         3.291462         1.974166        -2.052223
 H         0.181229        -0.299865         1.212925
 H        -0.831930         0.180154        -0.217210
 H        -0.028912        -1.390819        -0.108829
