19
Iteration:  1876charge 0 multiplicity 1
 C         1.259208         3.063363         0.147125
 C         1.945592         1.705795         0.038264
 C         3.080389         1.354057         1.053713
 O         3.738511         0.159451         0.415164
 C         2.756072        -0.083349        -0.659565
 C         2.488149         1.263311        -1.321850
 O         1.154047         0.935809        -1.841924
 C         1.219756         0.428491        -0.391950
 C        -0.014047        -0.236094         0.162012
 H         0.535165         2.994348         0.976793
 H         1.906887         3.757934         0.556561
 H         0.805824         3.418394        -0.806779
 H         3.759279         2.144729         1.407996
 H         2.707382         0.816657         1.884799
 H         3.024649        -1.030001        -1.151021
 H         3.173855         1.874008        -1.796337
 H         0.134861        -0.510360         1.297172
 H        -0.856036         0.493580         0.189506
 H        -0.207532        -1.247641        -0.251587
