19
Iteration:  1331
 C         1.224626         3.044763         0.162737
 C         2.052728         1.792511        -0.002116
 C         3.018430         1.290012         1.077192
 O         3.497218         0.070157         0.434657
 C         2.712085        -0.058692        -0.693736
 C         2.529911         1.320088        -1.398119
 O         1.204021         0.935675        -1.861980
 C         1.261959         0.471922        -0.406575
 C         0.181061        -0.249037         0.307148
 H         0.670935         3.034900         1.088756
 H         1.767499         3.997974         0.213908
 H         0.313377         2.954056        -0.593438
 H         3.872346         2.075545         1.241368
 H         2.542530         1.064428         1.978677
 H         2.948992        -0.925291        -1.224331
 H         3.220541         1.812780        -2.169613
 H         0.722533        -0.692919         1.093719
 H        -0.582829         0.412230         0.750583
 H        -0.382244        -0.984708        -0.287384
