19
Iteration:  3264
 C         1.283154         3.128525         0.218832
 C         1.962162         1.790295         0.074848
 C         3.063182         1.295472         0.999425
 O         3.433080        -0.016963         0.492235
 C         2.736595        -0.005693        -0.741562
 C         2.576981         1.380642        -1.354125
 O         1.198916         0.928184        -1.819471
 C         1.302714         0.435341        -0.369235
 C         0.102438        -0.315205         0.184619
 H         0.807798         3.210799         1.237723
 H         1.968618         4.035889         0.103177
 H         0.456320         3.116375        -0.471241
 H         3.822433         2.083116         0.765254
 H         2.977782         1.194225         2.019632
 H         2.955206        -0.908028        -1.223608
 H         3.075982         1.888477        -2.144963
 H         0.334784        -0.507719         1.163221
 H        -0.795851         0.177946        -0.028340
 H         0.036489        -1.205798        -0.515429
