19
Iteration:  2247charge 0 multiplicity 1
 C         1.217104         2.992162         0.147111
 C         2.022720         1.738512         0.062702
 C         3.016864         1.250455         1.034592
 O         3.576492         0.104845         0.426677
 C         2.780550         0.001615        -0.708137
 C         2.563594         1.360246        -1.408550
 O         1.197163         0.903761        -1.802701
 C         1.262381         0.462145        -0.411690
 C         0.045683        -0.198479         0.271306
 H         0.642165         3.030959         1.136509
 H         1.806824         3.817817         0.230453
 H         0.494064         2.980268        -0.675879
 H         3.817046         2.004769         1.142829
 H         2.608088         1.072255         2.014464
 H         2.909206        -1.002371        -1.341364
 H         3.201714         1.844311        -2.177450
 H         0.444945        -0.488965         1.296408
 H        -0.741460         0.515987         0.601151
 H        -0.381599        -1.011557        -0.243796
