19
Iteration:  2110
 C         1.177469         3.022268         0.177350
 C         1.995896         1.703686        -0.005961
 C         3.021716         1.246850         0.995007
 O         3.637051         0.109919         0.417864
 C         2.800476        -0.007585        -0.680210
 C         2.565898         1.295086        -1.327139
 O         1.214069         0.943496        -1.868572
 C         1.237075         0.442263        -0.385103
 C         0.053165        -0.170569         0.279618
 H         0.710616         2.932530         1.128055
 H         1.538787         4.118100         0.298799
 H         0.341459         2.920237        -0.556755
 H         3.758062         2.093936         1.132488
 H         2.637688         0.933500         2.054131
 H         2.799122        -0.956095        -1.290201
 H         3.334367         1.871725        -1.963421
 H         0.163065        -0.305427         1.446124
 H        -0.829262         0.565311         0.271120
 H        -0.200955        -1.232011        -0.140692
