19
Iteration:  3701
 C         1.132920         2.983811         0.342082
 C         2.046250         1.787204         0.067708
 C         3.140550         1.300838         1.006474
 O         3.516579        -0.024337         0.533862
 C         2.709434        -0.030986        -0.739929
 C         2.508662         1.405245        -1.369310
 O         1.239789         0.923414        -1.891899
 C         1.261909         0.488983        -0.491297
 C         0.069615        -0.206077         0.164039
 H         0.693009         2.969263         1.281838
 H         1.696748         4.045353         0.296044
 H         0.546524         2.844231        -0.528424
 H         4.055567         1.851386         0.722961
 H         3.287808         1.351857         2.060228
 H         2.904140        -0.856233        -1.356976
 H         3.264041         1.847865        -2.041456
 H         0.388488        -0.453016         1.166859
 H        -0.674401         0.538752         0.432584
 H        -0.615193        -1.095464        -0.245659
