19
Iteration:  2511charge 0 multiplicity 1
 C         1.304595         3.006006         0.240527
 C         1.992603         1.767695         0.036487
 C         3.088834         1.377950         1.026375
 O         3.503811         0.071579         0.436992
 C         2.792044        -0.013060        -0.705342
 C         2.540113         1.322318        -1.410805
 O         1.118097         0.916103        -1.781059
 C         1.274641         0.431488        -0.407540
 C         0.062773        -0.272886         0.195713
 H         0.870732         3.143540         1.252981
 H         1.993400         3.780875         0.181225
 H         0.677471         3.270031        -0.631500
 H         3.928404         2.066512         1.183467
 H         2.679277         0.989501         1.916691
 H         3.008506        -0.963593        -1.366789
 H         3.056794         2.024122        -2.056043
 H         0.168702        -0.396934         1.298131
 H        -0.856092         0.268419         0.083904
 H        -0.065650        -1.240044        -0.243953
