19
Iteration:  4609charge 0 multiplicity 1
 C         1.144693         2.952899         0.347141
 C         2.097562         1.826975         0.019151
 C         3.084298         1.316486         1.001051
 O         3.541992         0.016163         0.560383
 C         2.734019        -0.049781        -0.720837
 C         2.572665         1.288763        -1.411816
 O         1.190490         0.977217        -1.873761
 C         1.237158         0.486708        -0.470379
 C         0.113033        -0.181039         0.127495
 H         0.600977         2.749851         1.250587
 H         1.669237         3.887903         0.522432
 H         0.372422         2.850594        -0.492683
 H         3.899630         1.972646         1.345410
 H         2.505876         1.044886         1.988456
 H         2.793622        -0.883040        -1.336982
 H         3.116910         1.941295        -2.126766
 H         0.524508        -0.503840         1.126987
 H        -0.668947         0.538228         0.431360
 H        -0.247815        -1.002747        -0.581556
