19
Iteration:  4596charge 0 multiplicity 1
 C         1.178758         2.972615         0.293377
 C         2.005826         1.731540        -0.023477
 C         3.021000         1.268777         1.042948
 O         3.618180         0.068691         0.461625
 C         2.708365        -0.070446        -0.706978
 C         2.568917         1.353461        -1.372430
 O         1.239305         1.019938        -1.834782
 C         1.300348         0.468493        -0.397556
 C         0.036326        -0.190333         0.166659
 H         0.625854         2.702728         1.202140
 H         1.637491         3.872428         0.437194
 H         0.437767         3.300643        -0.511142
 H         3.849523         1.991342         1.125534
 H         2.408729         1.163923         2.039265
 H         3.026233        -0.916875        -1.256558
 H         3.408231         1.537395        -2.104666
 H         0.265857        -0.915217         1.036515
 H        -0.811635         0.502428         0.335866
 H        -0.312949        -0.881063        -0.547563
