19
Iteration:  4291
 C         1.298582         3.085863         0.208897
 C         1.962387         1.713669         0.106966
 C         3.007158         1.289755         1.086590
 O         3.586380         0.108698         0.389334
 C         2.756941        -0.025063        -0.722314
 C         2.546222         1.433505        -1.295767
 O         1.213928         0.931018        -1.805094
 C         1.282635         0.325741        -0.468983
 C         0.013340        -0.271293         0.167909
 H         0.642954         3.047167         1.100072
 H         2.045186         3.842413         0.414933
 H         0.867826         3.398643        -0.795906
 H         3.885990         1.990523         1.272000
 H         2.573517         0.807162         2.013053
 H         3.083588        -0.935386        -1.344726
 H         2.898918         2.051536        -2.150282
 H         0.016694        -0.601470         1.285565
 H        -0.849970         0.431751         0.019145
 H        -0.290725        -1.113504        -0.343274
