19
Iteration:  2532charge 0 multiplicity 1
 C         1.332259         3.155320         0.179710
 C         2.025572         1.746954         0.015253
 C         2.978832         1.227490         1.116879
 O         3.659953         0.131889         0.447274
 C         2.692968        -0.046643        -0.726391
 C         2.463527         1.351933        -1.392273
 O         1.095746         0.965993        -1.810766
 C         1.279767         0.325084        -0.394159
 C         0.113710        -0.292705         0.194290
 H         0.853091         3.319063         1.218492
 H         1.961846         4.048935         0.080468
 H         0.666718         3.277780        -0.706142
 H         3.779689         1.904220         1.263013
 H         2.459447         0.937232         2.011663
 H         3.095871        -0.995979        -1.314357
 H         3.110515         1.783259        -2.132039
 H         0.293351        -0.418966         1.313537
 H        -0.723622         0.340772         0.233850
 H        -0.145623        -1.190955        -0.255269
