19
Iteration:  3387
 C         1.257831         2.992154         0.277469
 C         1.992894         1.703534         0.034124
 C         3.173035         1.339419         1.055518
 O         3.594329         0.118913         0.527107
 C         2.764916        -0.078589        -0.709362
 C         2.541878         1.277749        -1.408643
 O         1.098925         0.983621        -1.830002
 C         1.273337         0.484466        -0.468148
 C         0.007645        -0.223805         0.138956
 H         0.571946         2.843725         1.192543
 H         1.947970         3.779607         0.288265
 H         0.462342         3.237010        -0.581405
 H         3.943003         2.121074         1.145160
 H         2.716698         1.182882         2.002479
 H         2.643746        -1.108117        -1.117397
 H         3.226848         1.843514        -2.139651
 H         0.343645        -0.823134         0.996643
 H        -0.694268         0.557891         0.434123
 H        -0.307766        -1.030579        -0.594840
