19
Iteration:  3486charge 0 multiplicity 1
 C         1.287378         3.108560         0.287156
 C         2.002912         1.777365         0.078316
 C         2.989528         1.211565         1.052657
 O         3.631400         0.128464         0.403541
 C         2.720851        -0.068723        -0.711652
 C         2.524641         1.289529        -1.418461
 O         1.144248         0.898113        -1.828172
 C         1.284045         0.519303        -0.382667
 C         0.056825        -0.253669         0.158508
 H         0.550094         3.228548         1.157165
 H         1.966029         3.897336         0.292395
 H         0.835142         3.291225        -0.799411
 H         3.756258         1.959398         1.430432
 H         2.351528         0.907708         1.935365
 H         2.940848        -1.089465        -1.069231
 H         3.162389         1.880818        -2.144429
 H         0.415522        -0.581037         1.195187
 H        -0.761555         0.458976         0.252128
 H         0.062104        -1.204468        -0.406576
