19
Iteration:  4816charge 0 multiplicity 1
 C         1.194537         3.070030         0.203871
 C         1.954906         1.670614         0.077896
 C         3.091090         1.271316         1.069865
 O         3.575189         0.068876         0.409981
 C         2.766163         0.009324        -0.676635
 C         2.531476         1.323320        -1.335238
 O         1.267346         1.040628        -1.887415
 C         1.242648         0.366871        -0.433416
 C         0.050138        -0.260472         0.210086
 H         0.498794         3.076665         1.077966
 H         2.069830         3.746753         0.360298
 H         0.451936         3.196445        -0.706846
 H         3.752439         2.147917         1.160879
 H         2.633570         1.013137         2.076988
 H         2.869196        -0.883050        -1.370805
 H         3.281809         1.865039        -1.901536
 H         0.422771        -0.481763         1.245024
 H        -0.767000         0.466147         0.337683
 H        -0.577013        -1.130607        -0.224892
