19
Iteration:  2551charge 0 multiplicity 1
 C         1.325832         3.126182         0.117681
 C         1.976970         1.702104         0.060412
 C         2.962259         1.259283         1.082739
 O         3.602240         0.107115         0.355554
 C         2.758991        -0.028390        -0.728799
 C         2.533349         1.335953        -1.345814
 O         1.160351         0.907465        -1.784956
 C         1.199817         0.540697        -0.400108
 C         0.133402        -0.328171         0.244626
 H         0.920388         3.295261         1.205023
 H         2.183303         3.964660         0.216566
 H         0.544634         3.200906        -0.581911
 H         3.809171         1.865209         1.438081
 H         2.324517         0.864482         1.960810
 H         2.895723        -1.027469        -1.121060
 H         3.064704         1.898531        -2.110965
 H         0.394053        -0.573456         1.353145
 H        -0.826313         0.246854         0.436928
 H        -0.115783        -1.078266        -0.483186
