19
Iteration:   760charge 0 multiplicity 1
 C         1.293561         3.145443         0.276433
 C         2.040336         1.790357         0.081830
 C         3.083950         1.284260         1.023527
 O         3.632085         0.089874         0.382216
 C         2.666775        -0.062619        -0.692988
 C         2.514844         1.291617        -1.382532
 O         1.115845         0.986172        -1.814018
 C         1.264938         0.424503        -0.372070
 C         0.051302        -0.324865         0.126421
 H         0.672620         3.153041         1.298860
 H         2.018408         3.952247         0.350241
 H         0.606113         3.226646        -0.546403
 H         3.918399         1.852449         1.308578
 H         2.541594         0.861844         1.978448
 H         2.889427        -1.015589        -1.282065
 H         3.006834         1.838663        -2.135477
 H         0.170272        -0.502862         1.262783
 H        -0.803370         0.324710         0.032368
 H         0.107876        -1.307523        -0.271895
