19
Iteration:  4457charge 0 multiplicity 1
 C         1.232997         2.966874         0.265062
 C         1.981400         1.703588         0.076403
 C         3.001970         1.254467         1.071641
 O         3.621042         0.034591         0.457650
 C         2.785166        -0.041934        -0.669512
 C         2.513961         1.394892        -1.362189
 O         1.211409         0.994691        -1.846187
 C         1.232202         0.470664        -0.477597
 C         0.051323        -0.207192         0.165540
 H         0.659534         2.950297         1.163559
 H         1.844648         3.957634         0.172401
 H         0.661649         3.091223        -0.693480
 H         3.897545         1.942415         1.153830
 H         2.501867         1.153425         2.059444
 H         3.101571        -0.795933        -1.299755
 H         3.025191         1.957622        -2.138947
 H         0.451123        -0.461103         1.140874
 H        -0.799828         0.509097         0.131896
 H        -0.166307        -1.091299        -0.485153
