19
Iteration:  4815charge 0 multiplicity 1
 C         1.184265         3.070087         0.206446
 C         1.971312         1.676147         0.074483
 C         3.085749         1.268800         1.061377
 O         3.576655         0.071427         0.423219
 C         2.765212        -0.012802        -0.685981
 C         2.537947         1.325831        -1.334089
 O         1.265756         1.043485        -1.887792
 C         1.237971         0.367603        -0.433539
 C         0.045411        -0.261451         0.206479
 H         0.485954         3.065341         1.106249
 H         2.040097         3.732997         0.344920
 H         0.429065         3.217309        -0.714444
 H         3.772382         2.151022         1.178892
 H         2.660188         1.024597         2.049814
 H         2.834023        -0.866079        -1.371990
 H         3.311384         1.922409        -1.917076
 H         0.472819        -0.484386         1.273545
 H        -0.770285         0.473378         0.357334
 H        -0.560501        -1.105733        -0.203398
