19
Iteration:  2667charge 0 multiplicity 1
 C         1.327126         2.979747         0.199518
 C         1.977056         1.725893         0.045911
 C         3.080412         1.268204         1.140568
 O         3.595448         0.140090         0.385344
 C         2.771597        -0.029378        -0.705361
 C         2.485346         1.380445        -1.420112
 O         1.127977         0.885957        -1.815537
 C         1.282701         0.382911        -0.406078
 C         0.004920        -0.177125         0.220317
 H         0.863425         2.900601         1.152323
 H         1.999110         3.891093         0.264053
 H         0.431107         3.181855        -0.693400
 H         3.861413         2.084806         1.218233
 H         2.446781         0.961172         1.951326
 H         3.354978        -0.843754        -1.165509
 H         3.175324         1.961666        -2.153150
 H         0.319576        -0.213439         1.221569
 H        -0.772741         0.576845         0.355684
 H        -0.322130        -1.109084        -0.349748
