19
Iteration:  2555
 C         1.350483         3.115371         0.146548
 C         2.000381         1.727117         0.059081
 C         2.952061         1.249108         1.101001
 O         3.589181         0.114089         0.364485
 C         2.738057        -0.034596        -0.746446
 C         2.523702         1.355534        -1.364851
 O         1.199426         0.899279        -1.767498
 C         1.167427         0.522261        -0.395522
 C         0.128347        -0.307957         0.241063
 H         0.893190         3.175964         1.155298
 H         1.987502         3.933680         0.058085
 H         0.565270         3.265176        -0.683023
 H         3.790960         1.880702         1.276544
 H         2.431534         0.955416         1.971392
 H         2.893671        -1.112385        -1.141202
 H         2.999238         1.955512        -2.132951
 H         0.452802        -0.645901         1.199044
 H        -0.768890         0.190898         0.470100
 H        -0.104431        -1.151658        -0.399540
