19
Iteration:  3206charge 0 multiplicity 1
 C         1.186367         3.056867         0.232103
 C         2.034079         1.812566         0.037900
 C         3.047561         1.314762         1.050045
 O         3.603196         0.057340         0.376282
 C         2.794778        -0.028424        -0.667681
 C         2.548544         1.363597        -1.351097
 O         1.198869         0.845515        -1.811276
 C         1.268360         0.404288        -0.371757
 C        -0.032783        -0.177902         0.154843
 H         0.633533         3.136496         1.114449
 H         2.084876         3.826173         0.468966
 H         0.797605         3.554611        -0.626313
 H         3.831230         1.989770         1.362031
 H         2.486719         0.905471         1.876995
 H         3.074524        -1.057964        -1.244656
 H         3.086489         1.835498        -2.198137
 H         0.158894        -0.897240         1.002114
 H        -0.858918         0.422791         0.540163
 H        -0.206249        -0.931000        -0.532354
