19
Iteration:  2589
 C         1.242527         3.066767         0.229925
 C         1.964383         1.777340        -0.028997
 C         3.116365         1.374894         1.009200
 O         3.462492         0.003211         0.543899
 C         2.786633        -0.095728        -0.749693
 C         2.546790         1.312383        -1.401393
 O         1.141553         0.984293        -1.783172
 C         1.275974         0.427966        -0.443088
 C         0.138911        -0.270985         0.229891
 H         0.714961         3.001028         1.166875
 H         1.952121         3.822088         0.337496
 H         0.355079         3.387290        -0.499934
 H         3.941549         2.087199         0.817919
 H         2.990402         1.480777         2.060706
 H         2.961356        -1.125014        -1.219046
 H         3.058384         2.042969        -2.084030
 H         0.482453        -0.842517         1.017286
 H        -0.650984         0.402301         0.456966
 H        -0.250661        -0.990638        -0.555594
