19
Iteration:  1521charge 0 multiplicity 1
 C         1.162516         3.008738         0.254078
 C         2.043395         1.833951         0.029730
 C         3.182981         1.393150         0.950802
 O         3.415575         0.031975         0.560657
 C         2.686905        -0.084371        -0.648067
 C         2.549843         1.313965        -1.416806
 O         1.185327         0.913942        -1.883728
 C         1.297135         0.441988        -0.446811
 C         0.161855        -0.230853         0.210311
 H         0.345477         2.780813         1.010908
 H         1.725776         3.849742         0.799283
 H         0.688419         3.236859        -0.649646
 H         4.078852         2.071888         0.686136
 H         2.990934         1.517168         2.031931
 H         2.867609        -0.943211        -1.269448
 H         3.156940         1.848269        -2.174873
 H         0.574245        -0.727327         1.162606
 H        -0.701690         0.339962         0.524332
 H        -0.277467        -1.048662        -0.333815
