19
Iteration:  1096charge 0 multiplicity 1
 C         1.245190         3.057185         0.319874
 C         2.124374         1.833370         0.045956
 C         3.258578         1.448687         0.921501
 O         3.359708         0.056400         0.580338
 C         2.643583        -0.049000        -0.675634
 C         2.455980         1.280285        -1.445047
 O         1.121115         0.929155        -1.800431
 C         1.296060         0.465667        -0.383772
 C         0.176778        -0.391118         0.093174
 H         0.655860         2.929482         1.253388
 H         1.700746         4.080547         0.146453
 H         0.551237         3.036212        -0.497277
 H         4.211152         2.071614         0.607489
 H         3.216471         1.448078         1.976177
 H         2.764009        -1.153449        -1.113694
 H         3.134148         1.813777        -2.137853
 H         0.539009        -0.957269         0.970365
 H        -0.585623         0.257332         0.437527
 H        -0.213096        -0.854761        -0.808346
