19
Iteration:  3882
 C         1.224695         2.962556         0.249483
 C         2.015922         1.682333         0.087082
 C         2.926458         1.239880         1.093855
 O         3.639057         0.150929         0.370721
 C         2.784043        -0.032565        -0.718662
 C         2.568380         1.339526        -1.349725
 O         1.171397         0.943121        -1.827307
 C         1.300688         0.342475        -0.474448
 C         0.059829        -0.103623         0.198443
 H         0.848966         3.203866         1.379483
 H         1.810510         3.813989         0.103520
 H         0.296631         3.152213        -0.360479
 H         3.713124         1.926541         1.340971
 H         2.523527         0.860441         2.015025
 H         3.076206        -0.924664        -1.295421
 H         3.133270         1.831488        -2.214321
 H         0.119302        -0.428223         1.254040
 H        -0.389746         0.917775         0.202293
 H        -0.570789        -0.848107        -0.339026
