19
Iteration:  2752
 C         1.243111         3.068085         0.249501
 C         1.986109         1.767751         0.054940
 C         3.174828         1.368184         0.886956
 O         3.423801         0.063015         0.546486
 C         2.660517        -0.076153        -0.708296
 C         2.527355         1.337415        -1.377966
 O         1.199071         0.943511        -1.746159
 C         1.272171         0.466666        -0.417157
 C         0.176658        -0.312194         0.124555
 H         0.616433         3.050015         1.160425
 H         1.934666         3.802037         0.336969
 H         0.513489         3.180566        -0.603821
 H         4.020332         2.020523         0.733059
 H         2.978478         1.390930         1.978210
 H         2.994910        -1.153729        -1.127746
 H         3.023828         1.989191        -2.176615
 H         0.459399        -0.682668         1.067672
 H        -0.674204         0.303231         0.284132
 H        -0.244092        -1.259695        -0.385268
