19
Iteration:  1061charge 0 multiplicity 1
 C         1.275541         3.040534         0.291746
 C         1.982378         1.749195         0.017195
 C         3.089619         1.357879         0.994287
 O         3.477500         0.051957         0.489996
 C         2.722037        -0.041828        -0.749781
 C         2.498847         1.305755        -1.437676
 O         1.185560         0.968284        -1.896800
 C         1.251688         0.411703        -0.428386
 C         0.168115        -0.261287         0.319254
 H         0.650044         3.013154         1.123080
 H         1.891434         3.947155         0.453156
 H         0.607810         3.146418        -0.613793
 H         3.962596         2.030264         0.959587
 H         2.729312         1.309112         2.074663
 H         2.882987        -0.928167        -1.274350
 H         3.214229         2.019136        -1.986540
 H         0.444886        -0.484205         1.333275
 H        -0.754955         0.378520         0.268118
 H        -0.017147        -1.319895        -0.095321
