19
Iteration:  4272
 C         1.186688         3.036475         0.321754
 C         2.062384         1.757951         0.047978
 C         3.058161         1.288158         1.049729
 O         3.619460         0.112266         0.470314
 C         2.759560        -0.066652        -0.719787
 C         2.553117         1.293723        -1.408079
 O         1.151776         0.901450        -1.829197
 C         1.211809         0.454847        -0.384926
 C         0.073641        -0.208898         0.070078
 H         0.512494         2.951189         1.128205
 H         1.805396         3.957842         0.663464
 H         0.792539         3.547435        -0.572589
 H         3.811323         2.104233         1.192961
 H         2.591786         0.983870         2.029832
 H         2.843315        -0.859976        -1.409037
 H         3.343177         1.785120        -1.959186
 H         0.245821        -0.508470         1.150225
 H        -0.845030         0.449572         0.132796
 H        -0.219291        -1.120112        -0.519254
