19
Iteration:  2248
 C         1.214056         2.992903         0.150800
 C         2.017255         1.735329         0.052256
 C         3.022632         1.245634         1.038101
 O         3.582968         0.111025         0.430673
 C         2.777696         0.007857        -0.723196
 C         2.566183         1.350842        -1.399071
 O         1.199654         0.902273        -1.803322
 C         1.262151         0.465782        -0.401026
 C         0.038884        -0.197414         0.268452
 H         0.653738         3.041019         1.142902
 H         1.812629         3.821534         0.232063
 H         0.471050         2.985277        -0.729366
 H         3.825558         2.005743         1.162113
 H         2.598240         1.047777         1.986365
 H         2.886076        -1.036427        -1.359770
 H         3.207567         1.873919        -2.170981
 H         0.437562        -0.478809         1.302238
 H        -0.721754         0.503659         0.597327
 H        -0.392383        -1.006495        -0.221003
