19
Iteration:  1204
 C         1.187861         2.945386         0.251013
 C         1.981698         1.724935         0.031839
 C         3.108930         1.362787         0.987713
 O         3.465463         0.036212         0.486509
 C         2.690009        -0.038508        -0.708143
 C         2.571943         1.338256        -1.477088
 O         1.225057         0.973371        -1.904496
 C         1.254789         0.457413        -0.432439
 C         0.176713        -0.198730         0.351866
 H         0.423287         2.874179         1.027444
 H         1.814806         3.884546         0.507569
 H         0.680402         3.079245        -0.702438
 H         3.979884         2.019038         0.940505
 H         2.780745         1.452851         2.137848
 H         2.749763        -1.038354        -1.291628
 H         3.218842         2.015812        -2.129464
 H         0.568018        -0.480690         1.416484
 H        -0.753819         0.417552         0.477847
 H        -0.092563        -1.296072         0.057591
