19
Iteration:  2056charge 0 multiplicity 1
 C         1.156787         3.011268         0.306450
 C         2.023593         1.784143        -0.071099
 C         3.158636         1.447784         0.924917
 O         3.432908        -0.010710         0.546383
 C         2.707345        -0.072536        -0.657142
 C         2.556650         1.390990        -1.412265
 O         1.219562         0.902113        -1.851226
 C         1.300065         0.474177        -0.415345
 C         0.129114        -0.266886         0.219958
 H         0.550947         2.927381         1.209552
 H         1.933552         3.912564         0.511037
 H         0.433333         3.390704        -0.469427
 H         4.061992         2.049633         0.865386
 H         2.720386         1.374383         1.985841
 H         2.859537        -1.054131        -1.260462
 H         3.295905         1.844152        -2.189090
 H         0.445177        -0.664554         1.290734
 H        -0.932776         0.143211         0.414497
 H        -0.112646        -1.233232        -0.409977
