19
Iteration:   834
 C         1.181725         2.962885         0.382851
 C         2.032165         1.758705         0.003329
 C         3.142539         1.336134         0.940454
 O         3.526191         0.032583         0.437070
 C         2.690082        -0.041682        -0.714579
 C         2.528917         1.316913        -1.396644
 O         1.187852         0.939104        -1.837823
 C         1.255890         0.537331        -0.406716
 C         0.105395        -0.207697         0.217771
 H         0.687532         2.852295         1.309801
 H         1.806490         3.865491         0.332848
 H         0.411965         3.067034        -0.434522
 H         4.085865         2.031005         0.926103
 H         2.857034         1.188603         2.004796
 H         2.773493        -0.983047        -1.320143
 H         3.370855         1.786661        -1.979806
 H         0.264062        -0.402580         1.288228
 H        -0.795849         0.435324         0.228500
 H        -0.045699        -1.157797        -0.446243
