19
Iteration:   623
 C         1.283744         3.015264         0.326556
 C         2.020412         1.722702         0.097235
 C         3.213867         1.322319         1.037035
 O         3.582088         0.040226         0.451364
 C         2.779409        -0.035341        -0.701859
 C         2.416785         1.418509        -1.450439
 O         1.094301         0.877136        -1.788801
 C         1.276182         0.426903        -0.391104
 C         0.036625        -0.208965         0.063463
 H         0.696961         3.097498         1.211440
 H         1.995135         3.892130         0.333405
 H         0.597448         3.191654        -0.511880
 H         4.109070         1.964266         1.148234
 H         2.762041         1.247119         1.966090
 H         2.859482        -1.078815        -1.205246
 H         2.896818         2.180951        -2.106677
 H        -0.085904        -0.400778         1.154439
 H        -0.744317         0.551469        -0.023602
 H        -0.149421        -1.085896        -0.518549
