19
Iteration:  4335charge 0 multiplicity 1
 C         1.244839         3.122423         0.238493
 C         2.073111         1.826272        -0.017352
 C         3.018401         1.291856         1.135475
 O         3.440791         0.052404         0.476429
 C         2.637990        -0.095466        -0.774702
 C         2.572009         1.355284        -1.377943
 O         1.189473         1.010475        -1.765924
 C         1.321195         0.454372        -0.449873
 C         0.169691        -0.397535         0.124314
 H         0.935397         3.212409         1.288923
 H         1.876455         3.968411        -0.041126
 H         0.385331         3.116388        -0.503145
 H         3.958963         1.899744         1.309747
 H         2.377831         1.127012         2.048413
 H         2.888212        -1.054870        -1.267896
 H         3.317637         1.968129        -1.945330
 H         0.590559        -0.628859         1.165416
 H        -0.778580         0.185275         0.208331
 H        -0.004038        -1.302408        -0.355567
