19
Iteration:  3594charge 0 multiplicity 1
 C         1.343881         3.093258         0.235012
 C         1.991470         1.728101         0.054209
 C         3.032096         1.245879         1.079176
 O         3.570172         0.043363         0.555352
 C         2.723664        -0.063750        -0.774295
 C         2.490768         1.375221        -1.400064
 O         1.127443         1.001985        -1.854832
 C         1.218559         0.402040        -0.496948
 C         0.186065        -0.244386         0.215515
 H         0.878184         3.198315         1.213378
 H         1.940560         3.973477        -0.066785
 H         0.396871         2.956994        -0.400752
 H         3.687827         2.149963         1.142351
 H         2.421763         1.083307         2.019466
 H         3.037034        -0.907341        -1.338144
 H         3.179117         2.025933        -1.992745
 H         0.426964        -0.715033         1.199273
 H        -0.685768         0.346998         0.328166
 H        -0.199318        -1.094733        -0.445403
