19
Iteration:  2032
 C         1.271362         3.093356         0.249904
 C         2.006148         1.766924         0.060916
 C         3.114200         1.355445         1.033845
 O         3.540369         0.155785         0.470594
 C         2.681861        -0.065942        -0.648087
 C         2.538056         1.268442        -1.338992
 O         1.146611         0.925219        -1.874647
 C         1.200915         0.461783        -0.437129
 C         0.134713        -0.376772         0.154441
 H         0.528652         3.211313         0.999367
 H         2.026590         3.977653         0.367153
 H         0.678892         3.372682        -0.754669
 H         3.942461         2.117011         0.875811
 H         2.915445         1.215365         2.155053
 H         3.045370        -0.923323        -1.282912
 H         3.311231         1.587523        -2.119752
 H         0.385982        -0.807464         1.262451
 H        -0.793459         0.259622         0.386462
 H        -0.321455        -1.163752        -0.504118
