19
Iteration:  4489charge 0 multiplicity 1
 C         1.243638         3.088088         0.317063
 C         1.977686         1.780313         0.045352
 C         3.034650         1.309858         1.014358
 O         3.349150        -0.036908         0.475711
 C         2.741664        -0.000039        -0.687803
 C         2.554981         1.387502        -1.365376
 O         1.251961         1.004805        -1.846015
 C         1.321068         0.407335        -0.477652
 C         0.218072        -0.339884         0.166729
 H         0.832812         3.109968         1.319151
 H         2.020012         3.941693         0.156327
 H         0.329902         3.021479        -0.379636
 H         3.959146         1.880693         0.936609
 H         2.675934         1.491932         1.980623
 H         3.065245        -0.700724        -1.355034
 H         3.053139         1.866634        -2.211157
 H         0.252900        -0.527733         1.259158
 H        -0.733992         0.294991         0.194098
 H        -0.094293        -1.285243        -0.309533
