19
Iteration:    91charge 0 multiplicity 1
 C         1.170546         2.986992         0.190351
 C         2.067823         1.789410        -0.000180
 C         3.123975         1.394611         1.025413
 O         3.415334        -0.000865         0.622367
 C         2.753712        -0.014384        -0.725267
 C         2.537475         1.356786        -1.444910
 O         1.121101         0.923954        -1.812440
 C         1.329736         0.473930        -0.413380
 C         0.188472        -0.261492         0.189483
 H         0.614799         2.829760         1.109068
 H         1.727994         3.958590         0.285552
 H         0.484873         3.060544        -0.607750
 H         3.975615         2.007427         0.959279
 H         2.826060         1.457897         2.073809
 H         2.921287        -0.891355        -1.388834
 H         3.184931         1.938423        -2.214019
 H         0.433390        -0.862103         0.994883
 H        -0.730942         0.253359         0.416663
 H        -0.003622        -1.051987        -0.621002
