19
Iteration:  2196charge 0 multiplicity 1
 C         1.262805         3.083779         0.277976
 C         2.062986         1.805851         0.007548
 C         3.163172         1.473387         0.959083
 O         3.402006         0.015196         0.513044
 C         2.654165        -0.078605        -0.645959
 C         2.504093         1.307921        -1.352522
 O         1.216651         0.918712        -1.897525
 C         1.209211         0.456374        -0.402512
 C         0.171840        -0.377383         0.204455
 H         0.639615         3.140153         1.171922
 H         2.012511         3.914025         0.369309
 H         0.378949         3.181315        -0.578214
 H         4.105570         2.096640         0.891282
 H         2.921187         1.553728         2.041624
 H         2.777259        -0.929672        -1.429805
 H         3.098188         1.989702        -2.083783
 H         0.630035        -0.775558         1.161309
 H        -0.729580         0.072843         0.511137
 H         0.005105        -1.064586        -0.660912
