19
Iteration:  2491charge 0 multiplicity 1
 C         1.213440         3.056517         0.304578
 C         1.977855         1.815317         0.061771
 C         3.172966         1.343296         0.934680
 O         3.537629         0.022679         0.502994
 C         2.675584        -0.093746        -0.677040
 C         2.494110         1.329825        -1.376952
 O         1.206630         0.927932        -1.850938
 C         1.267996         0.458504        -0.443500
 C         0.107314        -0.251483         0.206033
 H         0.739065         2.838373         1.213863
 H         1.758044         3.911782         0.356174
 H         0.409511         3.268813        -0.486180
 H         3.954283         2.115602         0.668431
 H         2.995530         1.488215         2.011060
 H         2.721638        -1.030313        -1.315774
 H         3.211819         1.827936        -2.062227
 H         0.250898        -0.445418         1.229543
 H        -0.729656         0.385459        -0.057267
 H        -0.047937        -1.290945        -0.284984
