19
Iteration:    40
 C         1.406307         3.129807         0.175923
 C         1.923665         1.761061         0.083861
 C         2.942692         1.229471         1.088043
 O         3.727561         0.293848         0.375754
 C         2.880996        -0.021644        -0.599778
 C         2.430536         1.320258        -1.408217
 O         1.186847         0.778641        -1.826020
 C         1.126531         0.462004        -0.370152
 C        -0.017553        -0.322698         0.128956
 H         0.501485         3.266212         0.801933
 H         2.187045         3.695185         0.660448
 H         1.235691         3.549686        -0.920747
 H         3.613490         2.053740         1.555138
 H         2.382736         0.588993         1.908431
 H         3.191096        -0.982749        -1.207102
 H         2.945850         1.959579        -2.158816
 H         0.229317        -1.030077         1.086703
 H        -0.742262         0.350830         0.656762
 H        -0.407117        -1.125239        -0.547210
