19
Iteration:  4378
 C         1.263984         3.060499         0.309949
 C         1.988532         1.758039         0.096634
 C         3.113116         1.373086         0.974600
 O         3.413351         0.026150         0.506428
 C         2.745316        -0.017617        -0.668602
 C         2.557043         1.345570        -1.303639
 O         1.222411         0.960948        -1.865363
 C         1.276901         0.381613        -0.528980
 C         0.085848        -0.302998         0.093002
 H         0.685858         2.995697         1.272830
 H         1.870477         3.929927         0.441210
 H         0.369867         3.137434        -0.382571
 H         4.002120         2.036090         0.896449
 H         2.718986         1.264293         1.984529
 H         2.909707        -0.936990        -1.279035
 H         3.147770         1.956993        -2.041264
 H         0.757275        -0.643840         0.943376
 H        -0.555328         0.548103         0.422288
 H        -0.368828        -1.081953        -0.374523
