19
Iteration:  3218
 C         1.282758         3.072730         0.275472
 C         1.957979         1.744504         0.045300
 C         3.008063         1.310710         1.092201
 O         3.640325         0.160922         0.406980
 C         2.750855        -0.063313        -0.705818
 C         2.507479         1.195382        -1.425494
 O         1.188059         0.908153        -1.774309
 C         1.249242         0.495193        -0.363938
 C         0.052186        -0.236166         0.107113
 H         0.549076         3.104320         1.068395
 H         2.127267         3.870540         0.452823
 H         0.739996         3.272889        -0.611300
 H         3.853465         1.958361         1.349438
 H         2.548259         1.034322         2.018671
 H         2.869414        -1.042586        -1.341899
 H         3.190975         1.706287        -2.101633
 H         0.333158        -0.700471         1.046306
 H        -0.747128         0.487744         0.199018
 H        -0.336639        -0.843727        -0.681378
