19
Iteration:  1258
 C         1.281748         3.076827         0.263034
 C         1.981787         1.817318         0.077553
 C         3.181683         1.386528         0.967126
 O         3.580705         0.106450         0.437230
 C         2.699489        -0.081371        -0.627130
 C         2.468785         1.255122        -1.389795
 O         1.163195         0.896261        -1.797514
 C         1.238533         0.460256        -0.345222
 C         0.053999        -0.301902         0.101316
 H         0.840242         2.946558         1.258930
 H         1.939758         4.014195         0.137672
 H         0.469901         3.300723        -0.456591
 H         4.007817         2.048599         0.865645
 H         2.844142         1.373925         2.100106
 H         2.907288        -0.990376        -1.227915
 H         3.119786         1.778905        -2.191858
 H        -0.065230        -0.352790         1.242576
 H        -0.952381        -0.026841        -0.265276
 H         0.196173        -1.308807        -0.439385
