19
Iteration:  4741charge 0 multiplicity 1
 C         1.233007         3.039235         0.293175
 C         1.914199         1.729538         0.024287
 C         3.075207         1.316676         0.974871
 O         3.525937         0.055349         0.501151
 C         2.704204        -0.045500        -0.738026
 C         2.585867         1.373663        -1.298750
 O         1.267825         0.962290        -1.841708
 C         1.208317         0.440438        -0.454442
 C         0.099457        -0.277341         0.141658
 H         0.759648         2.920252         1.233221
 H         2.064874         3.746849         0.242640
 H         0.557667         3.300885        -0.532267
 H         3.874318         2.039673         1.012005
 H         2.713987         1.430485         2.063080
 H         2.974577        -0.964200        -1.300946
 H         3.310434         1.902613        -1.830930
 H         0.476105        -0.677008         1.023292
 H        -0.711657         0.392498         0.410017
 H        -0.481900        -1.115111        -0.368758
