19
Iteration:  1843
 C         1.336733         3.140643         0.108564
 C         2.013630         1.782218         0.066635
 C         3.048634         1.318212         1.126262
 O         3.543876         0.124031         0.431551
 C         2.782798        -0.023794        -0.715634
 C         2.476085         1.342050        -1.384812
 O         1.103204         0.839838        -1.761318
 C         1.334093         0.397075        -0.376163
 C         0.100298        -0.286989         0.140045
 H         0.899167         3.128483         1.134471
 H         2.049546         3.870009        -0.032885
 H         0.407903         3.220141        -0.534127
 H         3.679710         2.025971         1.686805
 H         2.353753         0.906361         1.887596
 H         3.041303        -0.938726        -1.344838
 H         2.964228         1.915102        -2.085024
 H         0.372371        -0.635992         1.193697
 H        -0.850112         0.307184         0.186647
 H        -0.292833        -1.072783        -0.575901
