19
Iteration:  2887charge 0 multiplicity 1
 C         1.262220         3.041482         0.240623
 C         2.103759         1.850029        -0.040948
 C         3.123089         1.425369         0.960773
 O         3.460969        -0.037003         0.593409
 C         2.706785        -0.046346        -0.707002
 C         2.534204         1.343222        -1.399415
 O         1.104977         0.968586        -1.764321
 C         1.284553         0.393570        -0.435479
 C         0.103914        -0.319895         0.148188
 H         0.789233         2.842663         1.122720
 H         1.850675         4.002047         0.332912
 H         0.480149         3.218063        -0.561942
 H         4.075104         2.029382         0.997734
 H         2.726044         1.549385         1.948579
 H         2.903544        -0.899109        -1.298043
 H         3.070630         1.935074        -2.168315
 H         0.461448        -0.509048         1.212673
 H        -0.925580         0.130960         0.026532
 H         0.168856        -1.275847        -0.256710
