19
Iteration:  2041charge 0 multiplicity 1
 C         1.269513         3.101611         0.266089
 C         2.022072         1.821790         0.082851
 C         3.109641         1.392422         0.996119
 O         3.487142         0.104368         0.475614
 C         2.675598        -0.059639        -0.648601
 C         2.530978         1.248078        -1.396496
 O         1.230868         0.923143        -1.884180
 C         1.185841         0.435196        -0.433994
 C         0.114683        -0.368991         0.177597
 H         0.607801         2.919485         1.148596
 H         1.742580         3.984879         0.549757
 H         0.619483         3.156202        -0.700732
 H         4.025412         2.095945         0.809805
 H         2.989234         1.384225         2.077025
 H         2.801566        -1.001015        -1.147722
 H         3.100315         1.885832        -2.052747
 H         0.566460        -0.700233         1.194815
 H        -0.625991         0.379114         0.357955
 H        -0.135812        -1.209814        -0.406912
