19
Iteration:  2157
 C         1.318513         3.071366         0.180028
 C         2.001170         1.761745         0.044087
 C         3.027123         1.456595         1.043309
 O         3.586598         0.078286         0.458218
 C         2.797454        -0.079494        -0.774709
 C         2.467028         1.310421        -1.353816
 O         1.136932         0.889076        -1.758670
 C         1.268041         0.421845        -0.374001
 C         0.057732        -0.295926         0.135277
 H         0.859194         3.197384         1.194780
 H         2.133559         3.867623         0.276499
 H         0.664068         3.257362        -0.584125
 H         3.867256         2.077455         1.255918
 H         2.483083         1.191675         2.013844
 H         3.110079        -0.942606        -1.276494
 H         3.005521         1.950975        -1.985912
 H         0.220603        -0.705145         1.114573
 H        -0.936360         0.280365         0.308012
 H        -0.145988        -1.232333        -0.494748
