19
Iteration:  3139
 C         1.173737         3.034220         0.259145
 C         2.081338         1.849053         0.065162
 C         3.168113         1.358967         1.082827
 O         3.426702        -0.024495         0.508563
 C         2.675897        -0.033487        -0.672588
 C         2.501359         1.302475        -1.470252
 O         1.192060         0.973282        -1.887468
 C         1.287806         0.459494        -0.449790
 C         0.167078        -0.265371         0.199609
 H         0.770379         3.014738         1.238733
 H         1.627963         4.076508         0.046757
 H         0.382261         2.924374        -0.561029
 H         4.040108         1.942778         1.280160
 H         2.646530         1.159732         2.020001
 H         2.886907        -0.870519        -1.393282
 H         3.311207         1.552495        -2.184864
 H         0.595767        -0.511304         1.236402
 H        -0.743791         0.340453         0.408444
 H        -0.002569        -1.092292        -0.381343
