19
Iteration:  4730charge 0 multiplicity 1
 C         1.284050         3.078449         0.255108
 C         1.975429         1.653780         0.115588
 C         3.053032         1.354379         1.067645
 O         3.535482         0.106092         0.449573
 C         2.709838        -0.078696        -0.714562
 C         2.547084         1.367605        -1.331376
 O         1.259345         0.968532        -1.881327
 C         1.243134         0.413678        -0.464140
 C         0.030383        -0.307788         0.180631
 H         0.725024         3.272849         1.151189
 H         2.008720         3.890404         0.402938
 H         0.571845         3.366018        -0.543236
 H         3.765653         2.132408         0.903701
 H         2.779684         0.996563         2.131087
 H         2.881877        -0.955518        -1.364986
 H         3.143239         1.953899        -1.972761
 H         0.265373        -0.786297         1.074149
 H        -0.780538         0.391497         0.309859
 H        -0.110158        -1.053808        -0.672505
