19
Iteration:   766charge 0 multiplicity 1
 C         1.299689         3.096500         0.351475
 C         2.044207         1.772997         0.039499
 C         3.109032         1.287854         1.016140
 O         3.591516         0.064004         0.438224
 C         2.684842        -0.072470        -0.684517
 C         2.488948         1.334029        -1.430859
 O         1.081662         0.968129        -1.810227
 C         1.269762         0.420939        -0.381324
 C         0.104538        -0.292751         0.124705
 H         0.740348         3.168849         1.194856
 H         2.000809         3.966543         0.299633
 H         0.576498         3.300842        -0.528503
 H         4.036596         1.958783         1.199801
 H         2.599802         1.231501         1.951454
 H         2.895466        -0.979597        -1.147059
 H         3.114899         1.939834        -2.194962
 H         0.121532        -0.373762         1.165917
 H        -0.885872         0.201675        -0.118904
 H         0.098079        -1.314933        -0.472125
