19
Iteration:  2787charge 0 multiplicity 1
 C         1.224557         3.081302         0.258024
 C         1.989902         1.783030        -0.049125
 C         3.127830         1.295993         0.995259
 O         3.645350         0.118503         0.486010
 C         2.725982        -0.106505        -0.676852
 C         2.475876         1.345285        -1.423876
 O         1.212757         0.936344        -1.817511
 C         1.236649         0.400019        -0.356274
 C         0.007198        -0.296707         0.208896
 H         0.645159         2.976223         1.115602
 H         1.867684         3.953681         0.282114
 H         0.556587         3.418009        -0.659154
 H         3.902062         2.078737         1.189590
 H         2.609962         1.105716         1.953380
 H         2.906195        -1.087014        -1.187971
 H         3.190095         1.947106        -2.094275
 H         0.310184        -0.820271         1.084894
 H        -0.561993         0.564102         0.574457
 H        -0.524813        -0.864706        -0.609285
