19
Iteration:  2416charge 0 multiplicity 1
 C         1.273692         3.092206         0.173458
 C         1.985597         1.746323         0.037822
 C         3.030869         1.261320         1.116632
 O         3.624999         0.087292         0.364698
 C         2.785433         0.004118        -0.700277
 C         2.544432         1.284226        -1.369642
 O         1.158157         0.906207        -1.845825
 C         1.238938         0.428447        -0.385718
 C         0.052527        -0.239216         0.265799
 H         0.781881         3.031448         1.085133
 H         1.752241         4.094326         0.142772
 H         0.527501         3.161026        -0.700984
 H         3.734842         2.074673         1.343505
 H         2.456796         0.968774         1.952362
 H         2.980586        -0.872134        -1.274296
 H         3.130496         1.936592        -2.039302
 H         0.403824        -0.665455         1.141343
 H        -0.583449         0.602935         0.612253
 H        -0.565435        -0.980582        -0.407353
