19
Iteration:  1211
 C         1.196967         2.893764         0.274665
 C         2.041958         1.734245         0.009179
 C         3.161928         1.408345         0.949859
 O         3.416194         0.004305         0.526378
 C         2.704979        -0.056558        -0.694408
 C         2.499550         1.367578        -1.449634
 O         1.227755         0.970967        -1.885386
 C         1.256836         0.483541        -0.444045
 C         0.160469        -0.216210         0.341699
 H         0.382796         2.818548         0.980705
 H         1.806097         3.773729         0.356777
 H         0.752628         3.165733        -0.790202
 H         3.973693         2.139502         0.834324
 H         2.847436         1.350719         1.961117
 H         2.842306        -0.932020        -1.156565
 H         3.131753         2.102074        -2.045119
 H         0.581077        -0.222970         1.291389
 H        -0.867348         0.185259         0.447211
 H         0.053462        -1.183880        -0.166176
