19
Iteration:  2718charge 0 multiplicity 1
 C         1.291480         3.053759         0.218490
 C         2.078379         1.783108         0.093271
 C         3.111913         1.332627         1.041129
 O         3.486792         0.078551         0.506074
 C         2.681144        -0.023327        -0.740762
 C         2.546839         1.313512        -1.423394
 O         1.146578         0.946626        -1.830466
 C         1.229473         0.490153        -0.457403
 C         0.114950        -0.347409         0.216628
 H         0.816726         3.057137         1.244702
 H         1.862744         3.929854         0.124337
 H         0.576228         3.099625        -0.568200
 H         3.920384         2.018781         1.132916
 H         2.566131         1.195893         2.004113
 H         2.922185        -1.026743        -1.345071
 H         2.980721         1.895218        -2.247047
 H         0.426815        -0.355732         1.276799
 H        -0.845160         0.131654         0.217013
 H         0.069812        -1.394826        -0.206594
