19
Iteration:  4336charge 0 multiplicity 1
 C         1.241710         3.120245         0.246982
 C         2.071631         1.827866        -0.019179
 C         3.016590         1.295995         1.128050
 O         3.438096         0.048497         0.479507
 C         2.640094        -0.092408        -0.776456
 C         2.568254         1.352356        -1.386534
 O         1.195995         1.013718        -1.769631
 C         1.319035         0.453938        -0.433210
 C         0.175695        -0.394161         0.119179
 H         0.962941         3.182181         1.277383
 H         1.865239         4.006226        -0.064345
 H         0.403805         3.109986        -0.517315
 H         3.991933         1.871494         1.297743
 H         2.350808         1.131668         2.048084
 H         2.876804        -1.029156        -1.234475
 H         3.313951         1.954239        -1.931182
 H         0.585345        -0.631422         1.166631
 H        -0.791072         0.173082         0.235460
 H        -0.022357        -1.345471        -0.365261
