19
Iteration:  2225charge 0 multiplicity 1
 C         1.192103         3.061412         0.216138
 C         2.035429         1.767466        -0.023650
 C         3.118630         1.401673         1.040959
 O         3.474693         0.017926         0.563579
 C         2.720640        -0.089248        -0.735903
 C         2.495494         1.306012        -1.399514
 O         1.113038         0.977514        -1.854147
 C         1.328455         0.395805        -0.430845
 C         0.221177        -0.256661         0.202425
 H         0.664068         3.092326         1.236441
 H         1.850478         3.858658         0.312188
 H         0.435734         3.169043        -0.599397
 H         4.011966         2.032697         1.148794
 H         2.651953         1.322489         2.019745
 H         2.887799        -1.121621        -1.334097
 H         3.067820         1.960066        -2.064300
 H         0.515043        -0.624151         1.222160
 H        -0.537353         0.519929         0.493997
 H        -0.214624        -0.996316        -0.405856
