19
Iteration:  1586
 C         1.296534         3.053896         0.129684
 C         1.989963         1.741083         0.089498
 C         2.937402         1.259509         1.122558
 O         3.653914         0.231612         0.353822
 C         2.770409        -0.025745        -0.693978
 C         2.537920         1.218303        -1.443801
 O         1.211888         0.895319        -1.783075
 C         1.250738         0.432556        -0.330064
 C        -0.019893        -0.235890         0.221069
 H         0.601492         3.190345         0.964850
 H         2.089990         3.864206         0.282415
 H         0.711088         3.275731        -0.742842
 H         3.699243         2.118077         1.374658
 H         2.569311         0.854065         2.024161
 H         2.968191        -0.943255        -1.167679
 H         3.216637         1.711891        -2.284232
 H         0.449640        -0.987464         0.978325
 H        -0.767818         0.343045         0.796578
 H        -0.461826        -0.599714        -0.680518
