19
Iteration:  2488
 C         1.191370         3.050766         0.305771
 C         1.974523         1.830545         0.062553
 C         3.201487         1.385338         0.924224
 O         3.524642         0.015136         0.503545
 C         2.674656        -0.109495        -0.654966
 C         2.494524         1.312322        -1.383968
 O         1.221934         0.934796        -1.854896
 C         1.272453         0.452336        -0.466445
 C         0.110770        -0.266229         0.185473
 H         0.757340         2.856936         1.356820
 H         1.678625         4.010454         0.430395
 H         0.505553         3.261905        -0.497494
 H         4.001542         2.063152         0.657699
 H         3.029391         1.295010         2.014121
 H         2.667534        -1.107049        -1.282310
 H         3.104633         1.920138        -2.049864
 H         0.221347        -0.368772         1.334861
 H        -0.766086         0.356438         0.059685
 H        -0.098789        -1.176399        -0.257140
