19
Iteration:  2430
 C         1.199803         3.032136         0.232193
 C         2.040738         1.777966         0.036063
 C         3.053179         1.292255         1.018246
 O         3.620379         0.119586         0.504571
 C         2.718278        -0.108384        -0.759406
 C         2.519133         1.356744        -1.401753
 O         1.148750         0.903389        -1.804410
 C         1.280007         0.406734        -0.475119
 C         0.082931        -0.167183         0.248433
 H         0.515881         3.168531         1.141058
 H         2.097944         3.838678         0.266549
 H         0.459248         3.081624        -0.526120
 H         3.913547         1.921455         1.221413
 H         2.720179         1.041202         2.061184
 H         2.985698        -0.916570        -1.363623
 H         3.224589         1.669810        -2.189778
 H         0.297264        -0.747189         1.167616
 H        -0.759580         0.550185         0.498896
 H        -0.405280        -0.877060        -0.446493
