19
Iteration:  1550
 C         1.261400         3.072595         0.234390
 C         2.000394         1.783772         0.023601
 C         2.983417         1.335725         1.011365
 O         3.671089         0.116875         0.450108
 C         2.793634        -0.027269        -0.688932
 C         2.470482         1.293876        -1.342015
 O         1.151861         0.799644        -1.832113
 C         1.313349         0.361488        -0.374538
 C         0.009095        -0.149713         0.204019
 H         0.411509         2.887717         0.782548
 H         1.829321         3.833774         0.750244
 H         1.029144         3.578677        -0.809030
 H         3.789437         2.095385         1.110709
 H         2.578794         1.095786         1.971959
 H         3.112333        -0.834703        -1.475616
 H         3.054035         1.903375        -2.221492
 H         0.239284        -1.017773         0.913588
 H        -0.550741         0.681673         0.655020
 H        -0.555589        -0.759162        -0.559562
