19
Iteration:  4158
 C         1.367956         3.110582         0.198556
 C         2.034608         1.766259        -0.000153
 C         2.967416         1.261766         1.158018
 O         3.631826         0.105350         0.433981
 C         2.704894        -0.051140        -0.693644
 C         2.421050         1.317737        -1.361594
 O         1.111223         1.015056        -1.830008
 C         1.303749         0.407399        -0.422163
 C         0.134491        -0.332496         0.147401
 H         0.765985         3.167383         1.144007
 H         2.077863         3.858520         0.141233
 H         0.627447         3.355949        -0.542491
 H         3.662457         2.089054         1.533442
 H         2.308203         0.902870         1.992237
 H         2.948856        -1.071463        -1.181634
 H         3.123349         1.971255        -1.982936
 H         0.319924        -0.805142         1.127882
 H        -0.808482         0.201408         0.197725
 H        -0.039908        -1.173016        -0.594387
