19
Iteration:  2916
 C         1.323813         3.124294         0.260198
 C         1.962683         1.771143         0.116695
 C         3.081556         1.418903         1.037008
 O         3.577952         0.058529         0.429648
 C         2.681715        -0.038684        -0.680147
 C         2.463600         1.257799        -1.424740
 O         1.198923         0.888572        -1.846057
 C         1.261521         0.427276        -0.349671
 C         0.079799        -0.286040         0.136480
 H         0.604381         3.207165         1.150665
 H         2.071497         3.847471         0.380477
 H         0.702925         3.272301        -0.669389
 H         3.875358         2.137648         1.011604
 H         2.822376         1.219445         2.110426
 H         2.764390        -1.079481        -1.252540
 H         2.997536         1.997504        -2.075122
 H         0.296028        -0.539136         1.123416
 H        -0.845330         0.195143        -0.108488
 H         0.106670        -1.328993        -0.339421
