19
Iteration:  4189
 C         1.222313         3.084443         0.179650
 C         2.061416         1.722629         0.043947
 C         3.002916         1.321783         1.158602
 O         3.525067         0.034368         0.378090
 C         2.757449        -0.016900        -0.727089
 C         2.548546         1.324495        -1.356541
 O         1.165448         0.989758        -1.796716
 C         1.288495         0.484082        -0.453801
 C         0.094153        -0.292267         0.206544
 H         0.797392         3.130628         1.261047
 H         1.850053         3.918476        -0.111722
 H         0.313237         2.988398        -0.378696
 H         3.951354         1.896018         1.397690
 H         2.644562         0.949709         2.150993
 H         2.971679        -0.936900        -1.320788
 H         3.371826         1.903652        -1.970747
 H         0.358574        -0.754934         1.091031
 H        -0.784062         0.286978         0.342864
 H        -0.145062        -1.122402        -0.564460
