19
Iteration:   178
 C         1.327452         3.153678         0.227441
 C         1.998213         1.777989         0.040179
 C         2.932504         1.191312         1.140514
 O         3.653159         0.246269         0.379194
 C         2.800426         0.030176        -0.700838
 C         2.513102         1.297426        -1.431622
 O         1.090125         0.776436        -1.763203
 C         1.321273         0.379924        -0.352845
 C         0.027914        -0.259077         0.127154
 H         0.918389         3.216760         1.226639
 H         2.081365         4.007319         0.145895
 H         0.541462         3.307892        -0.481973
 H         3.723472         1.846492         1.541200
 H         2.397770         0.722314         1.892262
 H         3.080616        -1.044798        -1.111590
 H         3.090855         1.948280        -2.223812
 H        -0.114367        -0.515921         1.082310
 H        -0.580927         0.605980        -0.087263
 H         0.001578        -1.134864        -0.620115
