19
Iteration:  4137
 C         1.365182         3.147890         0.283417
 C         1.939848         1.740499         0.082171
 C         3.042185         1.277396         1.028765
 O         3.499448         0.095415         0.462489
 C         2.753607         0.046536        -0.770583
 C         2.569481         1.388648        -1.366805
 O         1.192117         0.876933        -1.780551
 C         1.233498         0.449681        -0.472377
 C         0.051464        -0.402103         0.172353
 H         0.580505         3.245861         1.042323
 H         2.156646         3.819474         0.364583
 H         0.810126         3.381464        -0.616831
 H         3.918049         2.010313         1.123323
 H         2.629542         1.095231         2.041441
 H         3.046288        -0.867112        -1.430257
 H         3.202715         1.870968        -2.136473
 H         0.307937        -0.699445         1.234618
 H        -0.830040         0.258596         0.248299
 H        -0.270286        -1.275518        -0.445586
