19
Iteration:  3069
 C         1.351237         3.133826         0.246933
 C         1.961835         1.732530        -0.005698
 C         3.018816         1.314752         1.038412
 O         3.677106         0.118989         0.409698
 C         2.703768        -0.068273        -0.639558
 C         2.496162         1.295671        -1.355468
 O         1.144301         0.878011        -1.765574
 C         1.211385         0.488534        -0.371936
 C         0.061553        -0.278185         0.109002
 H         0.670445         3.109789         1.158451
 H         2.076194         3.865332         0.294317
 H         0.784858         3.329722        -0.676221
 H         3.787266         2.079883         1.287358
 H         2.452851         1.080058         2.010210
 H         2.914265        -0.929033        -1.264019
 H         3.095984         1.750303        -2.147586
 H         0.180040        -0.501861         1.127051
 H        -0.897494         0.187603         0.061024
 H         0.219511        -1.169466        -0.596419
