19
Iteration:  4750charge 0 multiplicity 1
 C         1.225171         2.993145         0.312952
 C         1.967966         1.812889        -0.012345
 C         3.056614         1.354079         0.968842
 O         3.482728        -0.016145         0.517420
 C         2.757045         0.000546        -0.636092
 C         2.579007         1.324722        -1.323042
 O         1.206015         0.975312        -1.881319
 C         1.304706         0.435147        -0.502038
 C         0.082818        -0.258912         0.147582
 H         0.664802         2.996905         1.279417
 H         1.854756         3.867887         0.395966
 H         0.332665         3.157015        -0.439548
 H         3.981438         1.932838         0.859290
 H         2.733233         1.118720         2.023525
 H         2.990442        -0.820651        -1.266976
 H         3.259280         1.943520        -1.942322
 H         0.582334        -0.649089         1.091544
 H        -0.653981         0.453520         0.554755
 H        -0.363920        -1.107333        -0.389740
