19
Iteration:   117
 C         1.023874         2.935612         0.267109
 C         2.050687         1.808676        -0.005063
 C         3.220848         1.404298         0.890784
 O         3.320556        -0.047102         0.567523
 C         2.705136        -0.038624        -0.613175
 C         2.567632         1.317725        -1.397364
 O         1.282903         1.039209        -1.863383
 C         1.306278         0.452305        -0.497803
 C         0.235722        -0.222583         0.228628
 H         0.782004         3.074233         1.340187
 H         1.280510         3.877143        -0.155183
 H         0.035189         2.638197        -0.325181
 H         4.237066         1.932547         0.817611
 H         2.934875         1.495593         2.055509
 H         2.659861        -0.970877        -1.263338
 H         3.308887         1.853032        -1.975972
 H         0.659256        -0.493861         1.365563
 H        -0.799181         0.277926         0.341823
 H         0.005635        -1.263336        -0.129125
