19
Iteration:  4376
 C         1.258383         3.061625         0.301224
 C         1.989466         1.755818         0.090453
 C         3.115921         1.371514         0.988461
 O         3.420226         0.028878         0.523579
 C         2.729862        -0.024970        -0.683448
 C         2.577036         1.358172        -1.320174
 O         1.212096         0.959232        -1.870410
 C         1.251697         0.384852        -0.519830
 C         0.106791        -0.295684         0.083171
 H         0.682447         3.013309         1.314946
 H         1.858021         3.895638         0.415625
 H         0.367217         3.160479        -0.317191
 H         4.016051         1.941537         0.955730
 H         2.785105         1.330254         1.993415
 H         2.880430        -1.012432        -1.288888
 H         3.183853         1.994963        -2.024460
 H         0.758599        -0.629076         0.928353
 H        -0.572691         0.477443         0.484247
 H        -0.347637        -1.138962        -0.376094
