19
Iteration:  3066
 C         1.318165         3.138780         0.249293
 C         1.996991         1.752186        -0.009197
 C         3.013867         1.314894         1.057956
 O         3.666578         0.117210         0.407270
 C         2.688254        -0.100125        -0.651144
 C         2.488929         1.301933        -1.351680
 O         1.154092         0.875079        -1.773717
 C         1.227161         0.462584        -0.361516
 C         0.065688        -0.259047         0.119614
 H         0.667757         3.148092         1.131430
 H         2.102782         3.937455         0.299541
 H         0.818506         3.370564        -0.617353
 H         3.817449         2.122985         1.254539
 H         2.445392         1.132985         1.990001
 H         2.926197        -1.008710        -1.391040
 H         3.029560         1.779792        -2.173707
 H         0.140717        -0.601633         1.162984
 H        -0.913434         0.202254         0.044802
 H         0.328640        -1.115535        -0.656249
