19
Iteration:  2322
 C         1.218686         3.095893         0.295803
 C         1.995173         1.770057         0.040494
 C         3.195823         1.384680         0.897940
 O         3.498581         0.064331         0.555333
 C         2.671347        -0.078759        -0.673761
 C         2.515680         1.304918        -1.458096
 O         1.220022         0.927743        -1.812973
 C         1.220252         0.429944        -0.441956
 C         0.111032        -0.322239         0.168566
 H         0.710757         3.025750         1.337632
 H         1.806276         4.055816         0.462413
 H         0.535133         3.201924        -0.480582
 H         4.088763         2.031682         0.817558
 H         2.789867         1.353371         1.985128
 H         2.856057        -1.051231        -1.208338
 H         3.211701         1.902224        -2.058700
 H         0.368652        -0.351409         1.290226
 H        -0.798641         0.377643         0.143730
 H        -0.121280        -1.255788        -0.298061
