19
Iteration:  4348charge 0 multiplicity 1
 C         1.272851         3.059401         0.253911
 C         2.052466         1.826645         0.033750
 C         3.009456         1.316037         0.979271
 O         3.407684        -0.026905         0.521996
 C         2.736689         0.009836        -0.650548
 C         2.546133         1.318674        -1.434304
 O         1.221942         1.060783        -1.890144
 C         1.256508         0.482075        -0.340460
 C         0.198872        -0.384477         0.150118
 H         0.928230         3.059104         1.256125
 H         1.731421         4.101685         0.109515
 H         0.290422         2.976159        -0.294891
 H         3.961516         1.871020         1.286279
 H         2.507259         1.177711         2.013086
 H         2.787682        -0.862468        -1.210143
 H         3.153223         1.743826        -2.232704
 H         0.455412        -0.842555         1.155191
 H        -0.788415         0.125509         0.325596
 H         0.105261        -1.244275        -0.602220
