19
Iteration:  3478
 C         1.318981         3.109079         0.247556
 C         1.980206         1.758328         0.077655
 C         2.954301         1.275723         1.088082
 O         3.601750         0.105195         0.365614
 C         2.728990        -0.027680        -0.691670
 C         2.528499         1.269277        -1.392511
 O         1.159678         0.933900        -1.801746
 C         1.243605         0.477918        -0.450115
 C         0.150209        -0.263842         0.199659
 H         0.615556         3.130332         1.094726
 H         2.124945         3.903714         0.281048
 H         0.598119         3.320184        -0.577245
 H         3.708770         1.906406         1.439008
 H         2.437579         0.830108         1.889157
 H         2.812171        -1.000104        -1.154888
 H         3.240047         1.620072        -2.086856
 H         0.282872        -0.634090         1.278944
 H        -0.780950         0.376775         0.114996
 H         0.004855        -1.080302        -0.429629
