19
Iteration:  2803charge 0 multiplicity 1
 C         1.265255         3.018334         0.214324
 C         2.021320         1.748349         0.046539
 C         2.958099         1.348606         1.082579
 O         3.610401         0.137415         0.374744
 C         2.792458        -0.075234        -0.694097
 C         2.561068         1.275221        -1.410014
 O         1.099889         0.885809        -1.760160
 C         1.309350         0.419935        -0.438203
 C         0.086411        -0.145668         0.193687
 H         0.640545         3.073392         1.213726
 H         1.989644         3.905784         0.418465
 H         0.576111         3.070097        -0.556998
 H         3.803022         2.053967         1.245340
 H         2.461652         0.966696         1.996520
 H         3.123487        -1.014937        -1.168238
 H         3.015042         1.796653        -2.199214
 H         0.331217        -0.894614         1.042147
 H        -0.712790         0.506569         0.596932
 H        -0.434759        -0.728267        -0.545396
