19
Iteration:  3262
 C         1.288936         3.123571         0.216618
 C         1.972037         1.782405         0.079268
 C         3.062205         1.303114         0.985556
 O         3.444551        -0.013107         0.500037
 C         2.731175         0.007872        -0.747885
 C         2.563476         1.356179        -1.362022
 O         1.209637         0.934328        -1.808599
 C         1.292029         0.439239        -0.366899
 C         0.092819        -0.328118         0.170599
 H         0.863133         3.170997         1.193562
 H         1.945690         4.090627         0.134510
 H         0.498014         3.140902        -0.449908
 H         3.786610         2.137914         0.837615
 H         2.912780         1.207603         2.067589
 H         3.026110        -0.945628        -1.321319
 H         3.063649         1.902919        -2.140519
 H         0.331198        -0.490341         1.204786
 H        -0.836373         0.186203         0.006569
 H        -0.010974        -1.175370        -0.476221
