19
Iteration:  4969
 C         1.151125         3.053047         0.258272
 C         2.009779         1.688488         0.089402
 C         3.056451         1.253286         1.119685
 O         3.589905         0.182913         0.393386
 C         2.698955        -0.062895        -0.769219
 C         2.582704         1.275407        -1.425871
 O         1.245521         0.987480        -1.815944
 C         1.288318         0.413137        -0.415565
 C         0.023175        -0.187926         0.216098
 H         0.512745         2.794298         1.070978
 H         1.832564         3.879058         0.508049
 H         0.781900         3.201021        -0.776522
 H         3.961368         1.904931         1.346900
 H         2.545579         0.993310         2.024570
 H         2.964766        -0.950010        -1.421908
 H         3.313756         1.666201        -2.100276
 H         0.223371        -0.819451         1.006622
 H        -0.691246         0.552377         0.562431
 H        -0.451930        -0.951643        -0.517296
