19
Iteration:     7charge 0 multiplicity 1
 C         1.238798         3.043794         0.201570
 C         1.994185         1.778714         0.038596
 C         3.009967         1.371518         1.041107
 O         3.562268         0.113979         0.454411
 C         2.755014        -0.007434        -0.661708
 C         2.519383         1.308029        -1.368152
 O         1.133136         0.884336        -1.816461
 C         1.347737         0.423689        -0.411265
 C         0.107034        -0.318879         0.184914
 H         0.608518         3.051043         1.113250
 H         1.979832         3.852673         0.250873
 H         0.566928         3.305661        -0.702437
 H         3.881320         2.058024         1.278176
 H         2.563811         1.088802         2.020954
 H         3.093427        -0.864966        -1.328734
 H         3.238411         1.759355        -2.064621
 H         0.321432        -0.693078         1.260969
 H        -0.676715         0.465047         0.074248
 H        -0.287236        -1.009645        -0.590733
