19
Iteration:   678charge 0 multiplicity 1
 C         1.208303         2.992648         0.406697
 C         2.052369         1.823991        -0.023406
 C         3.140141         1.345108         0.975204
 O         3.470059         0.001186         0.475365
 C         2.586899        -0.030915        -0.631033
 C         2.528591         1.298341        -1.434740
 O         1.240604         0.971829        -1.942407
 C         1.216043         0.511989        -0.418723
 C         0.197602        -0.259830         0.226658
 H         0.857638         2.711229         1.341935
 H         1.694132         3.992958         0.501454
 H         0.331514         3.056666        -0.286627
 H         4.119289         1.908535         0.819035
 H         2.884593         1.440216         1.986363
 H         2.670970        -0.973774        -1.255542
 H         3.238502         1.819697        -2.133713
 H         0.797553        -0.971023         0.811837
 H        -0.604419         0.229025         0.801737
 H        -0.439750        -0.774948        -0.508756
