19
Iteration:  4427
 C         1.176746         3.006232         0.279711
 C         2.078573         1.763820         0.073548
 C         3.017785         1.252594         1.111026
 O         3.671345         0.172695         0.390760
 C         2.685560        -0.132647        -0.702322
 C         2.585501         1.317075        -1.363452
 O         1.197926         0.950081        -1.791503
 C         1.235701         0.434261        -0.429173
 C         0.003783        -0.169900         0.125798
 H         0.328499         2.928928         0.979144
 H         1.714110         3.933245         0.674263
 H         0.617724         3.166760        -0.607306
 H         4.013775         1.806410         1.230747
 H         2.394243         1.005177         2.080119
 H         3.093925        -0.923489        -1.368309
 H         3.212361         1.643644        -2.171776
 H         0.272906        -0.690206         0.995575
 H        -0.701148         0.649225         0.057454
 H        -0.170695        -0.957171        -0.778790
