19
Iteration:  2232charge 0 multiplicity 1
 C         1.208021         3.023864         0.234866
 C         2.000772         1.771358        -0.030532
 C         3.090196         1.412135         1.082931
 O         3.510921         0.014342         0.504177
 C         2.711350        -0.107438        -0.706676
 C         2.488067         1.326185        -1.403695
 O         1.141666         0.969990        -1.840353
 C         1.304523         0.384807        -0.467853
 C         0.211629        -0.198448         0.264226
 H         0.629379         3.020086         1.128143
 H         1.831208         4.008555         0.079905
 H         0.639479         3.092770        -0.636356
 H         3.989654         2.025403         1.143511
 H         2.648739         1.126190         2.119227
 H         3.075353        -0.876474        -1.210023
 H         3.027670         1.904900        -2.123750
 H         0.467660        -0.748433         1.138600
 H        -0.630266         0.558538         0.328043
 H        -0.215202        -1.031939        -0.448861
