19
Iteration:  4380charge 0 multiplicity 1
 C         1.261169         3.054750         0.320287
 C         1.987245         1.761527         0.095818
 C         3.109109         1.372623         0.965315
 O         3.410703         0.023652         0.493555
 C         2.757058        -0.016348        -0.661474
 C         2.538199         1.338836        -1.294566
 O         1.233264         0.962595        -1.859917
 C         1.296444         0.381012        -0.536398
 C         0.076155        -0.300156         0.110211
 H         0.707619         2.975516         1.230502
 H         1.904025         3.991599         0.446555
 H         0.417791         3.129993        -0.445984
 H         3.981828         2.117394         0.847340
 H         2.675636         1.209555         2.002185
 H         2.949937        -0.848986        -1.261408
 H         3.114450         1.906528        -2.031829
 H         0.698515        -0.670339         0.964837
 H        -0.546583         0.581016         0.365027
 H        -0.431682        -1.102165        -0.428583
