19
Iteration:  1357charge 0 multiplicity 1
 C         1.104914         2.956935         0.215854
 C         2.050821         1.741627        -0.039450
 C         3.184415         1.433847         0.914253
 O         3.384474        -0.021003         0.575413
 C         2.672087        -0.099391        -0.661349
 C         2.582358         1.320829        -1.410862
 O         1.229385         1.079475        -1.852856
 C         1.268820         0.435040        -0.433155
 C         0.193029        -0.245011         0.314929
 H         0.187083         2.994576         0.932254
 H         1.739580         3.871462         0.604669
 H         0.531184         3.042823        -0.727776
 H         3.991700         2.028946         0.574470
 H         2.953603         1.573266         2.038874
 H         2.970916        -1.072014        -1.266455
 H         3.258303         1.768235        -2.170276
 H         0.867140        -0.836586         1.107004
 H        -0.638547         0.335848         0.743952
 H        -0.281677        -0.986537        -0.380124
