19
Iteration:   503charge 0 multiplicity 1
 C         1.246200         3.015280         0.395308
 C         1.982183         1.770310         0.083368
 C         3.203734         1.415972         0.909511
 O         3.526256         0.098930         0.458881
 C         2.671831        -0.106945        -0.653854
 C         2.572919         1.257384        -1.377940
 O         1.188382         1.024750        -1.802216
 C         1.194557         0.429083        -0.480067
 C         0.040312        -0.296604         0.079337
 H         0.729799         2.829231         1.378796
 H         1.912113         3.962398         0.583041
 H         0.478442         3.134099        -0.365602
 H         4.072878         1.983352         0.666843
 H         2.991429         1.524921         2.080997
 H         2.890457        -1.121882        -1.231081
 H         3.311637         1.639020        -2.099513
 H         0.342342        -0.997248         0.946779
 H        -0.696720         0.344793         0.577750
 H        -0.328422        -0.905964        -0.696161
