19
Iteration:  2490
 C         1.207838         3.056641         0.305284
 C         1.975322         1.822931         0.063696
 C         3.183374         1.356980         0.931128
 O         3.533782         0.020033         0.503744
 C         2.674854        -0.099202        -0.668553
 C         2.492958         1.323432        -1.379627
 O         1.212719         0.930458        -1.852240
 C         1.270150         0.456721        -0.453260
 C         0.108140        -0.256559         0.199407
 H         0.752660         2.840276         1.261908
 H         1.706252         3.915806         0.377861
 H         0.441705         3.272215        -0.495283
 H         3.966761         2.100360         0.661677
 H         3.007075         1.423295         2.010548
 H         2.697420        -1.073373        -1.316831
 H         3.174164         1.860032        -2.055868
 H         0.239009        -0.420878         1.267698
 H        -0.731927         0.371956        -0.018494
 H        -0.065675        -1.250635        -0.274851
