19
Iteration:  1007charge 0 multiplicity 1
 C         1.260578         2.996851         0.213710
 C         2.045368         1.763488         0.008699
 C         3.053156         1.212461         1.148645
 O         3.687291         0.157091         0.376489
 C         2.823163        -0.004350        -0.775067
 C         2.439709         1.315981        -1.494857
 O         1.090707         0.899526        -1.687670
 C         1.298635         0.384395        -0.397720
 C         0.009510        -0.129232         0.235797
 H         0.632726         3.022487         1.101391
 H         1.994088         3.883807         0.211947
 H         0.564803         3.071922        -0.738199
 H         3.828367         1.871899         1.613282
 H         2.435693         0.740117         1.922267
 H         3.110342        -0.926458        -1.347727
 H         3.150925         1.935264        -2.208197
 H         0.008693        -0.074640         1.279379
 H        -0.865052         0.436731        -0.172333
 H        -0.381438        -1.160632        -0.134278
