19
Iteration:  2166charge 0 multiplicity 1
 C         1.282076         3.121995         0.233634
 C         1.988972         1.731334         0.041706
 C         3.058299         1.404153         1.018604
 O         3.551574         0.073547         0.465753
 C         2.796725        -0.057049        -0.658561
 C         2.537857         1.284724        -1.403589
 O         1.150092         0.915566        -1.773358
 C         1.218061         0.437781        -0.429727
 C         0.062419        -0.348342         0.186835
 H         0.767173         3.235566         1.156228
 H         2.130808         3.900774         0.114076
 H         0.689889         3.465601        -0.545318
 H         3.864675         2.125297         0.897677
 H         2.678327         1.316490         2.125400
 H         2.990152        -0.766902        -1.367192
 H         2.970052         1.933546        -2.169684
 H         0.415991        -0.827864         1.101377
 H        -0.880731         0.276469         0.174496
 H        -0.105803        -1.204066        -0.608464
