19
Iteration:  3877charge 0 multiplicity 1
 C         1.230211         2.977817         0.250624
 C         1.967268         1.693075         0.030863
 C         3.009073         1.214412         1.063344
 O         3.606223         0.123649         0.394468
 C         2.791082         0.021233        -0.722581
 C         2.532140         1.377352        -1.325556
 O         1.193756         0.934841        -1.809081
 C         1.319279         0.335487        -0.473946
 C         0.041140        -0.123750         0.192193
 H         0.910427         2.910870         1.232723
 H         1.963271         3.843838         0.025392
 H         0.295488         3.131467        -0.329531
 H         3.720004         2.082181         1.350184
 H         2.382049         0.880952         1.966216
 H         3.111768        -0.903803        -1.246296
 H         3.216929         1.755373        -2.040425
 H         0.145147        -0.434914         1.293973
 H        -0.482388         0.865552         0.249615
 H        -0.656696        -0.836826        -0.234963
