19
Iteration:   199charge 0 multiplicity 1
 C         1.378100         3.121045         0.216828
 C         1.981420         1.755095         0.033341
 C         2.975028         1.315460         1.083335
 O         3.721444         0.222021         0.392481
 C         2.758153        -0.045816        -0.646297
 C         2.447882         1.268448        -1.321217
 O         1.152129         0.878613        -1.795320
 C         1.200300         0.443811        -0.403761
 C        -0.010105        -0.372733         0.124885
 H         0.590457         3.291248         0.948938
 H         2.263947         3.827911         0.502143
 H         1.015276         3.435477        -0.715984
 H         3.752047         2.154401         1.300360
 H         2.556318         0.871730         1.960304
 H         2.892893        -0.944341        -1.387842
 H         3.122321         1.919892        -2.012126
 H         0.240741        -0.723912         1.070091
 H        -0.984930         0.174846         0.180691
 H        -0.111630        -1.258587        -0.626574
