19
Iteration:  4584charge 0 multiplicity 1
 C         1.203005         3.001414         0.266708
 C         1.998335         1.750220         0.083666
 C         3.026535         1.307660         1.081950
 O         3.565395         0.115951         0.378739
 C         2.771480        -0.066048        -0.671139
 C         2.616164         1.294785        -1.384009
 O         1.222809         0.992634        -1.834516
 C         1.265335         0.407687        -0.435608
 C         0.015474        -0.231083         0.136275
 H         0.530583         2.977931         1.162524
 H         1.933001         3.681655         0.434360
 H         0.580437         3.159225        -0.638451
 H         3.804740         2.079548         1.311216
 H         2.769526         0.854129         2.112846
 H         2.856747        -1.034113        -1.200519
 H         3.165659         2.123888        -1.942958
 H         0.173771        -0.786599         1.117189
 H        -0.677854         0.589921         0.433915
 H        -0.416808        -0.776771        -0.619368
