19
Iteration:  1390
 C         1.152930         3.071086         0.279620
 C         2.014699         1.781302        -0.011369
 C         3.215332         1.410696         0.982582
 O         3.462889         0.000624         0.523176
 C         2.723231        -0.030621        -0.714081
 C         2.534745         1.343617        -1.415172
 O         1.152769         0.848936        -1.830299
 C         1.331129         0.434966        -0.366565
 C         0.071832        -0.241619         0.191263
 H         0.286319         2.868582         1.036035
 H         1.819536         3.992683         0.588998
 H         0.825890         3.474605        -0.671236
 H         4.073025         2.090389         0.828307
 H         2.952513         1.423410         2.121828
 H         3.154391        -0.933854        -1.285069
 H         3.134250         1.705030        -2.238752
 H         0.242677        -0.807837         1.205775
 H        -0.653481         0.564955         0.324962
 H        -0.134891        -1.029480        -0.531987
