19
Iteration:   454
 C         1.270159         3.038961         0.209075
 C         1.958384         1.716488         0.113137
 C         2.978373         1.223049         1.137561
 O         3.712198         0.148545         0.308196
 C         2.813073        -0.090685        -0.758174
 C         2.506460         1.369912        -1.352686
 O         1.158973         0.939128        -1.800029
 C         1.265539         0.387334        -0.383065
 C        -0.002484        -0.166397         0.181914
 H         0.730129         3.170306         1.140626
 H         1.952978         3.795176         0.101677
 H         0.487580         3.055827        -0.610190
 H         3.773364         1.979880         1.580589
 H         2.480328         0.720108         1.889287
 H         3.073738        -0.893864        -1.333728
 H         3.135580         1.981313        -2.035633
 H         0.285430        -0.861919         0.900939
 H        -0.430049         0.671179         0.786843
 H        -0.813304        -0.584396        -0.510475
