19
Iteration:  4182
 C         1.253279         3.054428         0.179843
 C         2.020759         1.800262         0.091269
 C         2.983482         1.255524         1.161027
 O         3.552902         0.059847         0.371216
 C         2.753483        -0.005855        -0.702385
 C         2.637888         1.269664        -1.416654
 O         1.105532         1.009194        -1.773731
 C         1.299527         0.490090        -0.414790
 C         0.092416        -0.302478         0.139602
 H         0.881812         3.213773         1.160172
 H         1.877452         3.868831        -0.112172
 H         0.337357         3.097803        -0.448860
 H         3.722432         2.042047         1.352688
 H         2.524907         0.907500         2.108319
 H         3.031631        -0.973189        -1.241361
 H         3.167949         1.834271        -2.120401
 H         0.510820        -0.741027         1.151763
 H        -0.868615         0.226111         0.405992
 H        -0.128004        -1.135452        -0.454980
