19
Iteration:   440
 C         1.232959         2.986342         0.196012
 C         1.982149         1.678265        -0.012811
 C         2.933925         1.152859         1.031806
 O         3.680653         0.168446         0.367899
 C         2.725354        -0.014543        -0.718032
 C         2.568056         1.308850        -1.318642
 O         1.200955         1.064597        -1.827317
 C         1.252524         0.406185        -0.454488
 C         0.078931        -0.205487         0.341099
 H         0.882903         3.033030         1.207102
 H         2.004267         3.841007         0.156188
 H         0.433075         3.236634        -0.540432
 H         3.620760         1.968549         1.375328
 H         2.466991         0.813001         1.982213
 H         2.826681        -0.974303        -1.290411
 H         3.285520         1.962468        -1.875329
 H         0.236709        -0.990583         1.132084
 H        -0.551334         0.589987         0.828359
 H        -0.509513        -0.773367        -0.592827
