19
Iteration:  3698charge 0 multiplicity 1
 C         1.133958         2.990173         0.330999
 C         2.017288         1.765477         0.086429
 C         3.171568         1.300288         0.964491
 O         3.511411        -0.014991         0.553325
 C         2.697594        -0.035449        -0.731041
 C         2.531123         1.404851        -1.344545
 O         1.229400         0.929449        -1.875723
 C         1.262317         0.488035        -0.526352
 C         0.076170        -0.198558         0.157704
 H         0.637150         2.978575         1.315957
 H         1.735795         3.908004         0.341713
 H         0.565777         2.953356        -0.545280
 H         4.121379         1.949076         0.728581
 H         3.251085         1.389677         2.112771
 H         2.843136        -0.920080        -1.466150
 H         3.253757         1.828523        -2.113129
 H         0.403166        -0.514805         1.134136
 H        -0.738611         0.521103         0.441652
 H        -0.525352        -1.124352        -0.226524
