19
Iteration:  3895
 C         1.186746         2.997158         0.296077
 C         1.963356         1.727847         0.065095
 C         2.991433         1.226506         1.202908
 O         3.677590         0.164680         0.374872
 C         2.794279        -0.132506        -0.767274
 C         2.546150         1.247099        -1.455869
 O         1.168600         0.944632        -1.824307
 C         1.313453         0.456902        -0.440411
 C         0.045597        -0.047186         0.187805
 H         0.708271         3.103121         1.400351
 H         1.854245         3.774653        -0.079559
 H         0.449556         2.856045        -0.448471
 H         3.643962         1.992256         1.513157
 H         2.410302         0.791445         2.025317
 H         3.010439        -1.005308        -1.308885
 H         3.200113         1.993241        -2.027962
 H         0.312282        -0.476527         1.077143
 H        -0.795964         0.596794         0.305486
 H        -0.334718        -0.901733        -0.511440
