19
Iteration:  3766charge 0 multiplicity 1
 C         1.291759         3.086706         0.223510
 C         1.978913         1.765971         0.042994
 C         3.007917         1.169352         1.088759
 O         3.626421         0.090961         0.416084
 C         2.717967        -0.009744        -0.760368
 C         2.529358         1.387414        -1.357858
 O         1.206463         0.939996        -1.836916
 C         1.234758         0.427507        -0.377327
 C         0.023512        -0.300354         0.194883
 H         0.884622         3.383344         1.155262
 H         2.192933         3.877087         0.249090
 H         0.661731         3.270766        -0.590773
 H         3.725144         2.061957         1.315193
 H         2.368275         1.110034         2.052144
 H         2.963525        -0.823052        -1.366076
 H         3.216443         1.966503        -2.019895
 H         0.382935        -0.745787         1.131533
 H        -0.682262         0.487058         0.431397
 H        -0.366445        -1.228259        -0.464751
