19
Iteration:   568charge 0 multiplicity 1
 C         1.315951         3.042697         0.223241
 C         1.981284         1.674554         0.087521
 C         2.984454         1.186366         1.164503
 O         3.576076         0.050000         0.387470
 C         2.756213         0.009858        -0.798289
 C         2.469352         1.393361        -1.415003
 O         1.127671         1.036480        -1.878239
 C         1.262844         0.450476        -0.452074
 C         0.166618        -0.242818         0.301960
 H         0.696032         3.188215         1.118742
 H         2.070799         3.907574         0.255373
 H         0.618662         3.179446        -0.599392
 H         3.841071         1.871646         1.481710
 H         2.370106         0.809631         2.072594
 H         3.096465        -0.964983        -1.446307
 H         3.154638         1.761668        -2.196071
 H         0.398326        -0.118406         1.451057
 H        -0.782320         0.253702         0.030712
 H         0.115381        -1.262939         0.152460
