19
Iteration:   697charge 0 multiplicity 1
 C         1.227155         3.027839         0.274793
 C         2.040658         1.808499         0.017629
 C         3.030438         1.277677         1.001006
 O         3.460067         0.012474         0.447518
 C         2.784175        -0.051842        -0.781614
 C         2.591148         1.394210        -1.426980
 O         1.113236         0.950690        -1.770845
 C         1.334240         0.440407        -0.443530
 C         0.141502        -0.231169         0.260462
 H         0.686280         3.003253         1.304028
 H         1.899006         3.864369         0.302262
 H         0.534583         3.229449        -0.442669
 H         3.861674         2.005902         1.310778
 H         2.547890         1.006752         1.952175
 H         2.981325        -0.965805        -1.517701
 H         3.110621         1.959274        -2.184495
 H         0.467004        -1.034872         1.058764
 H        -0.541373         0.416373         0.850892
 H        -0.430629        -0.702544        -0.467539
