19
Iteration:  4002
 C         1.363800         3.114552         0.273939
 C         1.968533         1.802171         0.054305
 C         3.014804         1.308544         1.062834
 O         3.580331         0.054990         0.494921
 C         2.720636        -0.048674        -0.710279
 C         2.559383         1.295329        -1.411468
 O         1.070968         0.932900        -1.842861
 C         1.278540         0.525862        -0.437117
 C         0.141514        -0.329065         0.123860
 H         0.775702         3.146607         1.218000
 H         2.028695         3.903990         0.288591
 H         0.624370         3.228448        -0.521153
 H         3.794821         2.015347         1.454350
 H         2.493064         1.061641         2.013672
 H         2.668317        -0.948959        -1.233254
 H         3.073865         1.922752        -2.219522
 H         0.450421        -0.816491         1.044555
 H        -0.835722         0.125919         0.381025
 H         0.021497        -1.286474        -0.516233
