19
Iteration:   339
 C         1.338520         3.081768         0.251028
 C         1.973800         1.754199         0.052485
 C         3.056105         1.296182         1.043947
 O         3.706911         0.129864         0.379456
 C         2.772495        -0.062961        -0.676313
 C         2.499094         1.359587        -1.380762
 O         1.153005         0.882305        -1.717073
 C         1.216949         0.471551        -0.337316
 C        -0.033446        -0.284192         0.033365
 H         0.768701         2.954032         1.217038
 H         2.090392         3.961591         0.390210
 H         0.568822         3.270717        -0.461141
 H         3.712444         2.160488         1.328632
 H         2.598934         0.764718         1.984567
 H         2.928211        -0.975023        -1.350232
 H         3.008227         1.851157        -2.177450
 H        -0.279645        -0.520607         1.207465
 H        -0.916028         0.416511        -0.201966
 H        -0.030949        -1.289590        -0.552682
