19
Iteration:  2366charge 0 multiplicity 1
 C         1.275590         3.076460         0.191779
 C         2.060197         1.815657        -0.008166
 C         3.100270         1.380900         1.040423
 O         3.459581         0.037949         0.506982
 C         2.729782        -0.124544        -0.711867
 C         2.521404         1.396257        -1.419539
 O         1.153620         0.963793        -1.783280
 C         1.261000         0.397992        -0.443118
 C         0.121260        -0.344204         0.228996
 H         0.781778         3.311033         1.221788
 H         2.095092         3.873975         0.208664
 H         0.571147         3.282824        -0.581047
 H         3.938809         2.087180         1.127880
 H         2.601924         1.273936         2.074586
 H         2.948125        -1.090458        -1.267551
 H         2.813835         1.972238        -2.316638
 H         0.570045        -0.715020         1.221470
 H        -0.877080         0.100756         0.471951
 H        -0.009548        -1.127058        -0.463995
