19
Iteration:  1974
 C         1.258178         3.107900         0.127776
 C         1.952655         1.750799         0.023283
 C         2.994113         1.314886         1.129572
 O         3.628707         0.073338         0.410640
 C         2.738627        -0.070462        -0.672426
 C         2.525252         1.321700        -1.340167
 O         1.182215         0.928222        -1.814966
 C         1.259164         0.489727        -0.446487
 C         0.112838        -0.328165         0.198247
 H         1.006236         3.260076         1.244285
 H         1.898363         3.876293        -0.147486
 H         0.321778         3.207680        -0.506372
 H         3.809505         2.137239         1.262140
 H         2.581814         1.045025         2.082188
 H         2.876809        -0.961209        -1.219745
 H         3.050099         1.966735        -1.967626
 H         0.455305        -0.705582         1.173249
 H        -0.632347         0.426155         0.459531
 H        -0.347023        -1.135543        -0.334412
