19
Iteration:  2873
 C         1.254418         2.985586         0.232055
 C         2.067747         1.740540         0.017303
 C         3.153204         1.414416         1.017322
 O         3.416672         0.021772         0.525648
 C         2.707635        -0.101237        -0.603342
 C         2.454186         1.382350        -1.459771
 O         1.185079         1.007180        -1.874928
 C         1.255777         0.517883        -0.428660
 C         0.194977        -0.319618         0.223134
 H         0.697100         3.020460         1.157832
 H         1.811699         3.842765         0.202549
 H         0.489327         2.883561        -0.603029
 H         4.022356         1.968261         0.890399
 H         2.843911         1.255018         2.055047
 H         2.928643        -1.150165        -1.185087
 H         3.093044         1.985513        -2.194975
 H         0.333345        -0.485839         1.254425
 H        -0.718866         0.260921         0.119165
 H        -0.104452        -1.298016        -0.265093
