19
Iteration:   902
 C         1.313052         3.143870         0.184866
 C         1.992307         1.796510         0.106589
 C         3.065672         1.278225         1.037928
 O         3.574875         0.116300         0.367374
 C         2.662160        -0.046080        -0.728774
 C         2.506869         1.324934        -1.319410
 O         1.179655         0.955764        -1.862526
 C         1.251240         0.429994        -0.406023
 C         0.084095        -0.355855         0.242230
 H         0.731183         3.251892         1.172521
 H         2.126334         3.828583         0.221514
 H         0.742707         3.288659        -0.643590
 H         3.789773         1.979150         1.421793
 H         2.473660         0.870773         1.945779
 H         2.905601        -1.027537        -1.381814
 H         3.091893         1.730466        -2.073232
 H         0.571559        -1.134407         1.051844
 H        -0.353588         0.359372         0.942437
 H        -0.575366        -0.973015        -0.332922
