19
Iteration:  3588charge 0 multiplicity 1
 C         1.272904         3.038269         0.268817
 C         1.971991         1.743417         0.027122
 C         3.046172         1.286658         1.053187
 O         3.546569         0.009885         0.537772
 C         2.706613        -0.070014        -0.701835
 C         2.503708         1.357498        -1.447652
 O         1.126740         1.010688        -1.836243
 C         1.297165         0.445794        -0.469740
 C         0.193380        -0.253646         0.180382
 H         0.955553         3.342712         1.299727
 H         1.896282         3.912592        -0.092485
 H         0.458402         3.027701        -0.444688
 H         3.832056         2.059615         1.240737
 H         2.472140         1.121323         1.969236
 H         2.925183        -0.942316        -1.379421
 H         3.247383         1.950234        -1.956737
 H         0.545710        -0.605117         1.166319
 H        -0.719030         0.411671         0.329373
 H        -0.209356        -1.005666        -0.461596
