19
Iteration:  1149
 C         1.311337         3.069812         0.170463
 C         1.994695         1.698081         0.031000
 C         3.060133         1.297385         1.164380
 O         3.609678         0.190614         0.397401
 C         2.784232         0.019634        -0.738572
 C         2.443851         1.282789        -1.406763
 O         1.105572         0.862186        -1.794167
 C         1.275581         0.356387        -0.395173
 C         0.064414        -0.195925         0.233179
 H         0.934707         3.345101         1.130310
 H         2.155360         3.811782        -0.011848
 H         0.500636         3.140578        -0.563035
 H         3.858348         2.012621         1.407794
 H         2.523328         0.844582         2.107123
 H         3.166785        -0.837182        -1.378253
 H         3.158515         1.895772        -2.064700
 H         0.233224        -1.143807         0.861567
 H        -0.620190         0.581913         0.694372
 H        -0.484675        -0.654063        -0.718944
