19
Iteration:  3628
 C         1.385204         3.201980         0.230213
 C         1.945199         1.711378         0.081041
 C         2.946309         1.223640         1.031089
 O         3.619807         0.096472         0.417420
 C         2.655792        -0.018850        -0.763188
 C         2.496738         1.367784        -1.342000
 O         1.190855         0.927540        -1.811379
 C         1.260674         0.411005        -0.371653
 C         0.127488        -0.322949         0.186596
 H         0.691167         3.375694         1.079330
 H         2.180659         3.900728         0.283402
 H         0.829291         3.391462        -0.773836
 H         3.663369         2.000403         1.393671
 H         2.496660         0.860226         1.994259
 H         2.830388        -0.926081        -1.268328
 H         3.096315         1.864137        -2.086802
 H         0.254262        -0.754126         1.231354
 H        -0.734889         0.326430         0.137927
 H        -0.003446        -1.130680        -0.494690
