19
Iteration:  4706
 C         1.324046         3.130170         0.188028
 C         2.052429         1.723205         0.049539
 C         3.063065         1.241565         1.106325
 O         3.637247         0.113323         0.497691
 C         2.751829        -0.024675        -0.727366
 C         2.485141         1.369904        -1.366470
 O         1.123397         0.935721        -1.735602
 C         1.208908         0.455225        -0.392907
 C         0.034907        -0.361710         0.018349
 H         0.666587         3.242459         1.102853
 H         1.992592         3.913880         0.400913
 H         0.597809         3.427399        -0.703019
 H         3.856052         1.943468         1.366730
 H         2.320124         0.940998         1.919025
 H         2.943996        -0.870100        -1.312453
 H         3.179950         1.809711        -2.149313
 H         0.213148        -0.664893         1.097428
 H        -0.760551         0.400060         0.066360
 H        -0.138394        -1.151859        -0.664864
