19
Iteration:  1792charge 0 multiplicity 1
 C         1.195489         3.028656         0.284443
 C         2.054986         1.853561        -0.054517
 C         3.158861         1.395247         0.941510
 O         3.353982         0.004259         0.602152
 C         2.642279        -0.070305        -0.637630
 C         2.551395         1.351208        -1.371327
 O         1.209385         0.954156        -1.920143
 C         1.254491         0.456212        -0.483693
 C         0.240046        -0.359560         0.253218
 H         0.964393         3.024424         1.305070
 H         1.688177         4.018078        -0.136545
 H         0.140480         2.951384        -0.332426
 H         4.057514         1.970430         0.706044
 H         2.924496         1.608358         2.090443
 H         2.862888        -0.854351        -1.213318
 H         3.388437         1.859599        -1.976249
 H         0.634158        -0.845881         1.200863
 H        -0.578172         0.327494         0.454335
 H        -0.191366        -1.075654        -0.376731
