19
Iteration:  4399charge 0 multiplicity 1
 C         1.233578         3.020224         0.282796
 C         1.968732         1.706651         0.037325
 C         3.068190         1.318707         1.049141
 O         3.557311         0.055334         0.511658
 C         2.782297        -0.030067        -0.766269
 C         2.577255         1.416754        -1.385550
 O         1.207257         0.939402        -1.874483
 C         1.281839         0.374161        -0.369327
 C        -0.007394        -0.230060         0.148002
 H         0.475909         3.031978         1.136964
 H         1.974178         3.681477         0.630260
 H         0.490279         3.381885        -0.482409
 H         3.942330         1.912186         0.980143
 H         2.733000         1.296676         2.075059
 H         3.075919        -0.933417        -1.423008
 H         3.220648         2.096085        -2.038992
 H         0.100158        -0.852672         1.132549
 H        -0.736471         0.603792         0.270089
 H        -0.278323        -0.873455        -0.611523
