19
Iteration:  3907charge 0 multiplicity 1
 C         1.174086         2.980064         0.213746
 C         2.049638         1.740908         0.058458
 C         3.046830         1.184107         1.077960
 O         3.667698         0.113862         0.415105
 C         2.777353         0.004020        -0.684013
 C         2.533424         1.288927        -1.425291
 O         1.194392         0.940601        -1.833573
 C         1.223492         0.529965        -0.385893
 C         0.022813        -0.141985         0.157116
 H         0.778859         2.931260         1.315763
 H         1.657470         4.018045         0.262185
 H         0.297369         3.097337        -0.347875
 H         3.752415         1.847769         1.540115
 H         2.492076         0.727166         1.923337
 H         2.930910        -0.956934        -1.082852
 H         3.233630         1.660500        -2.217480
 H         0.284672        -0.542072         1.077332
 H        -0.756055         0.543089         0.357971
 H        -0.305801        -1.044549        -0.466337
