19
Iteration:  3004charge 0 multiplicity 1
 C         1.135150         3.002036         0.241959
 C         2.018812         1.762880         0.026294
 C         3.119404         1.356104         0.946756
 O         3.457486         0.042328         0.498903
 C         2.647450        -0.047979        -0.669353
 C         2.572632         1.301280        -1.388305
 O         1.290608         1.050363        -1.892729
 C         1.287175         0.344016        -0.445130
 C         0.133842        -0.239675         0.313447
 H         0.536082         3.091514         1.274783
 H         1.711366         3.891173         0.105738
 H         0.320519         3.092939        -0.614845
 H         3.987098         2.000977         0.938612
 H         2.882315         1.293558         2.065149
 H         2.957064        -0.910783        -1.342412
 H         3.299119         1.681963        -2.143578
 H         0.474177        -0.757897         1.214783
 H        -0.571279         0.578391         0.615455
 H        -0.456096        -1.007912        -0.304559
