19
Iteration:  4460
 C         1.229252         2.987734         0.261605
 C         1.984800         1.699538         0.078746
 C         3.018975         1.241346         1.072860
 O         3.605904         0.035211         0.482018
 C         2.771575        -0.046352        -0.692382
 C         2.524910         1.414232        -1.343890
 O         1.193347         0.981690        -1.858571
 C         1.256967         0.455937        -0.492297
 C         0.061399        -0.188794         0.157365
 H         0.674640         2.956372         1.187469
 H         1.872239         3.905082         0.158352
 H         0.668344         3.065218        -0.629250
 H         3.887240         1.985257         1.155383
 H         2.509501         1.264289         2.112760
 H         3.131856        -0.828700        -1.417063
 H         2.973524         1.997249        -2.138597
 H         0.428885        -0.443423         1.130573
 H        -0.868348         0.413781         0.243603
 H        -0.156118        -1.170750        -0.462982
