19
Iteration:  1907
 C         1.143205         2.972074         0.249767
 C         1.998117         1.775638        -0.003279
 C         3.134285         1.424264         0.970774
 O         3.474728         0.008419         0.549602
 C         2.735329        -0.036893        -0.716869
 C         2.548604         1.319209        -1.448477
 O         1.202652         0.901248        -1.858849
 C         1.323066         0.447116        -0.348729
 C         0.115159        -0.181097         0.225121
 H         0.453895         2.578142         1.115771
 H         1.697540         3.788046         0.684975
 H         0.539112         3.382970        -0.513766
 H         4.036911         2.164612         0.823056
 H         2.989384         1.259630         1.999340
 H         2.954043        -1.009371        -1.311328
 H         3.256577         1.825223        -2.087112
 H         0.166640        -0.437018         1.267136
 H        -0.712353         0.521224         0.042613
 H        -0.111521        -1.093809        -0.393952
