19
Iteration:  1849charge 0 multiplicity 1
 C         1.335945         3.111791         0.136069
 C         2.023060         1.779893         0.095032
 C         3.008095         1.289297         1.094166
 O         3.556500         0.172157         0.404905
 C         2.787494         0.012307        -0.736837
 C         2.477748         1.304969        -1.411684
 O         1.132065         0.815478        -1.698691
 C         1.322509         0.418271        -0.374400
 C         0.063112        -0.289967         0.130872
 H         0.711079         3.362558         1.051759
 H         2.147635         3.948503         0.056701
 H         0.594274         3.066649        -0.699809
 H         3.737024         1.949406         1.661120
 H         2.400019         0.766561         1.913741
 H         3.098993        -0.944669        -1.255542
 H         3.050283         1.957526        -2.194351
 H         0.151902        -0.605065         1.142999
 H        -0.736652         0.462353         0.151508
 H        -0.302562        -1.104644        -0.505329
