19
Iteration:  4838
 C         1.307737         3.086964         0.211589
 C         2.014925         1.708710         0.114550
 C         3.006329         1.253543         1.081902
 O         3.600562         0.132809         0.455050
 C         2.775712        -0.072601        -0.770642
 C         2.528341         1.412609        -1.324889
 O         1.140602         0.888162        -1.803971
 C         1.257841         0.432899        -0.411566
 C         0.049962        -0.258105         0.118827
 H         0.551914         3.223513         1.008455
 H         2.212537         3.740673         0.374227
 H         0.742412         3.279474        -0.793839
 H         3.755819         2.054204         1.223636
 H         2.612166         0.969334         2.121717
 H         2.877764        -0.920905        -1.513583
 H         3.005114         2.170648        -1.919482
 H         0.246640        -0.542892         1.146230
 H        -0.886731         0.311662         0.034620
 H        -0.181641        -1.210427        -0.515402
