19
Iteration:  1529
 C         1.144648         3.027562         0.275372
 C         2.023729         1.742762         0.005624
 C         3.179193         1.391022         0.985844
 O         3.428805         0.057303         0.521479
 C         2.726614        -0.021051        -0.683083
 C         2.550133         1.356823        -1.433301
 O         1.200993         0.847742        -1.833394
 C         1.290652         0.435868        -0.438634
 C         0.098040        -0.217186         0.234238
 H         0.341506         2.873465         0.885000
 H         1.780925         3.839473         0.634200
 H         0.847137         3.550637        -0.692925
 H         4.175350         1.980388         0.871310
 H         2.975804         1.270847         2.001625
 H         2.892206        -1.112835        -1.017862
 H         3.148708         1.972445        -2.311245
 H         0.517228        -0.864740         1.083696
 H        -0.598053         0.579359         0.511553
 H        -0.236961        -0.982274        -0.507816
