19
Iteration:  1035charge 0 multiplicity 1
 C         1.251759         3.065424         0.203307
 C         1.946033         1.741746         0.007127
 C         2.968522         1.183834         1.089068
 O         3.694885         0.153957         0.333661
 C         2.773558        -0.044390        -0.770974
 C         2.524653         1.309325        -1.380784
 O         1.156528         0.880627        -1.808584
 C         1.227452         0.452957        -0.425179
 C         0.104246        -0.131732         0.332839
 H         0.557003         3.117568         1.104393
 H         1.931073         3.862060         0.393573
 H         0.673369         3.234238        -0.683576
 H         3.661659         1.867090         1.526239
 H         2.449509         0.605251         1.932883
 H         2.903820        -0.980855        -1.371090
 H         3.248630         1.946050        -1.833256
 H         0.343130        -0.170028         1.436871
 H        -0.856640         0.411239         0.109453
 H        -0.002253        -1.190061         0.126587
