19
Iteration:  2154charge 0 multiplicity 1
 C         1.341421         3.061811         0.172732
 C         1.992340         1.778363         0.026119
 C         3.027654         1.435745         1.051062
 O         3.596123         0.092480         0.456964
 C         2.788409        -0.069386        -0.793224
 C         2.443868         1.332337        -1.339859
 O         1.127842         0.883395        -1.760464
 C         1.281789         0.399446        -0.351550
 C         0.059923        -0.282572         0.121056
 H         0.851354         3.131640         1.098293
 H         2.144547         3.865007         0.300979
 H         0.564615         3.119640        -0.604692
 H         3.869108         2.090286         1.382616
 H         2.488464         1.120978         2.034447
 H         3.110823        -1.023541        -1.169707
 H         3.129951         1.952488        -1.994346
 H         0.166277        -0.630464         1.194601
 H        -0.859707         0.301824         0.308239
 H        -0.191593        -1.229793        -0.514774
