19
Iteration:  4122charge 0 multiplicity 1
 C         1.279531         3.136828         0.301432
 C         1.948093         1.763568         0.057095
 C         3.094219         1.368131         1.010826
 O         3.497574        -0.013134         0.476397
 C         2.736091        -0.055874        -0.673235
 C         2.443527         1.386451        -1.336565
 O         1.217504         0.928653        -1.931414
 C         1.263460         0.366536        -0.396504
 C         0.119575        -0.294512         0.150095
 H         0.591780         3.121408         1.206830
 H         2.114928         3.782002         0.661380
 H         0.790100         3.517848        -0.597254
 H         3.960267         2.152256         0.818863
 H         2.934893         1.263351         2.130463
 H         2.897105        -0.879093        -1.306403
 H         3.099270         2.105270        -1.968718
 H         0.417876        -0.664327         1.087087
 H        -0.783296         0.301751         0.202552
 H        -0.001381        -1.227639        -0.496739
