19
Iteration:    50charge 0 multiplicity 1
 C         1.393479         3.142614         0.197846
 C         1.882605         1.711500         0.040943
 C         2.950248         1.303263         1.113887
 O         3.773859         0.258751         0.380591
 C         2.820518         0.025433        -0.684934
 C         2.506135         1.256897        -1.305129
 O         1.157750         0.805469        -1.896014
 C         1.128429         0.458625        -0.381263
 C        -0.020211        -0.359100         0.207172
 H         0.460597         3.305931         0.752964
 H         2.184884         3.768136         0.622558
 H         1.207562         3.590255        -0.856383
 H         3.634367         2.095777         1.576826
 H         2.418965         0.759692         2.060357
 H         3.078328        -0.948828        -1.260635
 H         3.236982         1.789244        -1.998776
 H         0.456553        -1.022162         1.054329
 H        -0.898446         0.291948         0.509017
 H        -0.534537        -0.945867        -0.661546
