19
Iteration:   455
 C         1.266666         3.041188         0.212111
 C         1.965801         1.721721         0.118655
 C         2.990339         1.224489         1.140434
 O         3.706545         0.146187         0.307525
 C         2.819480        -0.083768        -0.756082
 C         2.501015         1.368486        -1.356538
 O         1.156797         0.929609        -1.796238
 C         1.261245         0.384853        -0.387693
 C        -0.012290        -0.161121         0.169182
 H         0.712974         3.200820         1.155404
 H         1.963491         3.793520         0.100523
 H         0.517437         3.034605        -0.610733
 H         3.752936         1.988972         1.591244
 H         2.488660         0.712686         1.917867
 H         3.096827        -0.897099        -1.360315
 H         3.105847         1.964098        -2.049402
 H         0.280623        -0.858156         0.915678
 H        -0.403511         0.646977         0.806015
 H        -0.748053        -0.569057        -0.514192
