19
Iteration:   730
 C         1.339485         3.036111         0.089741
 C         1.951922         1.677494         0.145954
 C         2.981697         1.132635         1.087428
 O         3.695562         0.159144         0.335555
 C         2.755714        -0.005680        -0.756374
 C         2.525233         1.404148        -1.299117
 O         1.102276         0.998422        -1.803487
 C         1.240741         0.436926        -0.390658
 C         0.041431        -0.235004         0.267272
 H         0.593069         3.343398         0.962821
 H         2.191279         3.697863         0.102343
 H         0.894636         3.062182        -0.830414
 H         3.735914         1.885008         1.539304
 H         2.499566         0.525875         1.906171
 H         2.987846        -0.918554        -1.486594
 H         3.008320         2.126648        -1.931554
 H         0.523880        -0.835777         1.149149
 H        -0.783917         0.442871         0.486797
 H        -0.367505        -1.023648        -0.325591
