19
Iteration:  4353
 C         1.261114         3.044366         0.260381
 C         2.035962         1.820607         0.007108
 C         3.053886         1.307629         1.014863
 O         3.411960        -0.034186         0.547578
 C         2.721128         0.004855        -0.634425
 C         2.548674         1.329879        -1.421053
 O         1.209382         1.051992        -1.915953
 C         1.281129         0.532219        -0.396136
 C         0.169276        -0.396673         0.197914
 H         0.855223         3.099719         1.345577
 H         1.792772         3.956463         0.154217
 H         0.317675         2.986080        -0.234476
 H         3.837928         2.045233         1.107450
 H         2.617566         1.165636         1.964173
 H         2.844864        -0.917181        -1.327127
 H         3.145147         1.732507        -2.264248
 H         0.510187        -0.906187         1.072126
 H        -0.763033         0.145419         0.215551
 H         0.126722        -1.121904        -0.663672
