19
Iteration:  4953
 C         1.173622         2.930835         0.224125
 C         2.026333         1.781455         0.007863
 C         3.026061         1.261117         1.053053
 O         3.648338         0.063277         0.409598
 C         2.746739        -0.098566        -0.613315
 C         2.561084         1.270144        -1.364589
 O         1.160733         1.073632        -1.853740
 C         1.282837         0.508118        -0.428175
 C         0.087865        -0.198746         0.178798
 H         0.411073         2.818465         1.050823
 H         1.703010         3.884110         0.375979
 H         0.457201         3.208622        -0.527136
 H         3.678019         2.078954         1.385722
 H         2.595038         0.862813         2.041816
 H         2.810446        -1.065100        -1.089351
 H         3.241284         1.853511        -2.146229
 H         0.502343        -0.789074         1.114824
 H        -0.692465         0.518128         0.517505
 H        -0.415233        -0.828761        -0.498578
