19
Iteration:  1025
 C         1.251954         3.093394         0.193189
 C         2.020866         1.714212         0.006555
 C         2.935054         1.131987         1.044063
 O         3.751999         0.141945         0.347567
 C         2.867491        -0.034827        -0.740630
 C         2.506587         1.313302        -1.378805
 O         1.092947         0.906173        -1.805208
 C         1.270557         0.451676        -0.346251
 C         0.047456        -0.128159         0.324351
 H         0.565417         2.897138         1.003725
 H         1.871375         3.941992         0.248070
 H         0.596173         3.250922        -0.670928
 H         3.576137         1.774695         1.556061
 H         2.138910         0.719477         1.809915
 H         3.086598        -0.875456        -1.343150
 H         2.911188         2.026941        -2.133377
 H         0.106067        -0.042915         1.449573
 H        -0.960621         0.373399         0.058113
 H        -0.115474        -1.154512        -0.071112
