19
Iteration:   712
 C         1.296557         3.073492         0.169466
 C         2.008613         1.675124         0.056734
 C         2.966307         1.207574         1.179128
 O         3.598792         0.049303         0.390929
 C         2.805764         0.014700        -0.802711
 C         2.430804         1.386501        -1.392361
 O         1.085811         1.008859        -1.751265
 C         1.306255         0.334908        -0.464860
 C         0.152680        -0.201488         0.252497
 H         0.702638         3.168397         0.976303
 H         2.044799         3.919948         0.200434
 H         0.606620         3.194531        -0.775721
 H         3.863803         1.828756         1.342764
 H         2.443466         0.957285         2.071697
 H         3.180224        -0.800447        -1.322709
 H         3.018695         2.026708        -2.133814
 H         0.391580        -0.825585         1.057209
 H        -0.252513         0.739766         0.663589
 H        -0.476899        -0.852082        -0.471242
