19
Iteration:  2686
 C         1.265113         3.136898         0.198495
 C         1.996934         1.753278         0.082224
 C         2.972207         1.259329         1.044240
 O         3.676531         0.074075         0.413553
 C         2.811135        -0.059315        -0.769992
 C         2.539435         1.305456        -1.355070
 O         1.146855         0.907462        -1.856690
 C         1.243289         0.428576        -0.393892
 C         0.055008        -0.228631         0.289121
 H         0.730881         3.341029         1.160372
 H         1.942303         3.891954         0.206648
 H         0.447329         3.240922        -0.527249
 H         3.654622         2.018411         1.371312
 H         2.426468         0.907391         1.974561
 H         2.827082        -0.960720        -1.560768
 H         3.007674         2.018070        -2.079378
 H         0.231024        -0.343872         1.343611
 H        -0.774546         0.405896         0.122061
 H        -0.174105        -1.194101        -0.246999
