19
Iteration:   951
 C         1.246378         3.049241         0.405090
 C         2.082733         1.871590         0.002561
 C         3.289601         1.426820         0.887132
 O         3.332200         0.025566         0.569550
 C         2.672017        -0.067934        -0.679458
 C         2.478667         1.341234        -1.412149
 O         1.159131         0.935412        -1.857020
 C         1.268365         0.429405        -0.477151
 C         0.134468        -0.366670         0.189695
 H         0.832374         2.857238         1.353768
 H         1.790534         4.047463         0.293525
 H         0.341307         3.061150        -0.392099
 H         4.205834         1.962429         0.525896
 H         3.332164         1.553397         1.991225
 H         2.920439        -0.905722        -1.175181
 H         3.313200         1.805248        -2.110367
 H         0.331372        -0.900889         1.106816
 H        -0.743463         0.310374         0.415030
 H        -0.179230        -1.189088        -0.577586
