19
Iteration:  3443
 C         1.314080         3.079960         0.242576
 C         1.951069         1.761570         0.059927
 C         3.094275         1.319124         1.023375
 O         3.423735        -0.038081         0.515134
 C         2.798232        -0.018217        -0.666846
 C         2.490970         1.376548        -1.376746
 O         1.162806         1.011174        -1.865719
 C         1.238145         0.435452        -0.503364
 C         0.189702        -0.309048         0.232162
 H         1.004362         3.392798         1.304060
 H         1.876108         3.936688        -0.050525
 H         0.538082         2.959029        -0.697446
 H         3.950876         2.036618         1.081103
 H         2.778174         1.146896         2.017699
 H         2.956426        -0.848055        -1.445141
 H         3.029481         1.952828        -2.204287
 H         0.421867        -0.621520         1.333708
 H        -0.825169         0.194618         0.266881
 H         0.044048        -1.284243        -0.309529
