19
Iteration:   205charge 0 multiplicity 1
 C         1.382684         3.147060         0.229385
 C         1.999853         1.757445         0.072790
 C         2.994792         1.355076         1.074230
 O         3.669078         0.199501         0.398301
 C         2.754864        -0.057511        -0.679183
 C         2.512534         1.251085        -1.293962
 O         1.128350         0.908898        -1.819550
 C         1.157532         0.412558        -0.454239
 C        -0.008850        -0.413842         0.116939
 H         0.500655         3.258399         0.908708
 H         2.087975         3.866867         0.564699
 H         1.084074         3.430669        -0.837695
 H         3.773381         2.102572         1.032698
 H         2.743422         1.136309         2.189671
 H         2.962641        -0.883367        -1.289619
 H         3.138346         1.889577        -1.855813
 H         0.330856        -0.795609         1.196006
 H        -0.838224         0.258705         0.378480
 H         0.016658        -1.240270        -0.522835
