19
Iteration:  3444
 C         1.315678         3.076597         0.245022
 C         1.960028         1.758440         0.065673
 C         3.088856         1.320490         1.016237
 O         3.428279        -0.029118         0.515137
 C         2.804924        -0.018564        -0.675126
 C         2.490779         1.382435        -1.382085
 O         1.163695         1.013285        -1.866387
 C         1.229931         0.430352        -0.506472
 C         0.185720        -0.316336         0.238009
 H         1.001683         3.411409         1.272033
 H         1.912123         3.951643        -0.040926
 H         0.564892         2.944199        -0.674058
 H         3.919495         2.000845         1.115930
 H         2.726886         1.147227         1.975755
 H         2.942350        -0.881167        -1.391884
 H         3.048980         1.943209        -2.161377
 H         0.411948        -0.617643         1.352319
 H        -0.840680         0.155341         0.256508
 H         0.006977        -1.222512        -0.280148
