19
Iteration:  4973charge 0 multiplicity 1
 C         1.197629         3.048067         0.265556
 C         2.006221         1.698202         0.118296
 C         3.068899         1.282435         1.100785
 O         3.575148         0.166281         0.397096
 C         2.721589        -0.056155        -0.804922
 C         2.599038         1.277439        -1.403765
 O         1.220775         0.944399        -1.821230
 C         1.325096         0.413107        -0.422979
 C        -0.001123        -0.195733         0.201378
 H         0.350743         2.841053         1.003425
 H         1.847423         3.978704         0.498972
 H         0.742496         3.221777        -0.700568
 H         3.789714         1.995672         1.441474
 H         2.537960         1.008166         2.064524
 H         2.828018        -0.879104        -1.496682
 H         3.282949         1.844413        -2.032723
 H         0.261121        -0.833895         1.105281
 H        -0.747191         0.549173         0.543576
 H        -0.546442        -0.922896        -0.478822
