19
Iteration:  4517
 C         1.288666         3.064622         0.274504
 C         2.011419         1.784559         0.004536
 C         3.120296         1.322589         1.117697
 O         3.465445         0.027275         0.499681
 C         2.655284        -0.002702        -0.608817
 C         2.605896         1.308016        -1.354814
 O         1.111670         1.025267        -1.918696
 C         1.207898         0.526330        -0.507454
 C         0.222671        -0.396152         0.092190
 H         0.882285         2.959087         1.338468
 H         1.900901         3.864141         0.293371
 H         0.388745         3.162305        -0.306354
 H         4.068318         1.923866         1.236835
 H         2.496055         1.289734         2.090003
 H         2.835201        -1.029216        -1.157369
 H         3.246929         1.859519        -2.084080
 H         0.408119        -0.781505         1.114966
 H        -0.742916         0.094770         0.243713
 H         0.015342        -1.283871        -0.467345
