19
Iteration:   328charge 0 multiplicity 1
 C         1.281561         3.084296         0.245500
 C         2.020567         1.771988         0.075817
 C         3.043761         1.189823         1.110024
 O         3.701564         0.169656         0.368251
 C         2.806090         0.014666        -0.704076
 C         2.437141         1.360090        -1.396019
 O         1.104800         0.803173        -1.739776
 C         1.310045         0.392942        -0.333847
 C        -0.023497        -0.187520         0.050258
 H         0.858836         3.235158         1.268025
 H         2.095819         3.902308         0.146389
 H         0.566843         3.299077        -0.524857
 H         3.875347         1.777525         1.541170
 H         2.360095         0.861131         1.985959
 H         3.070302        -0.868553        -1.337780
 H         3.046160         1.889676        -2.085458
 H        -0.159364        -0.527282         1.194007
 H        -0.753922         0.582394        -0.346441
 H        -0.282390        -1.053973        -0.647921
