19
Iteration:  3711
 C         1.161450         2.972201         0.321598
 C         2.050198         1.813068         0.040364
 C         3.142353         1.305518         1.050568
 O         3.481129        -0.041957         0.441609
 C         2.759166        -0.011556        -0.695500
 C         2.530799         1.372228        -1.411928
 O         1.244952         0.944607        -1.917331
 C         1.272349         0.415130        -0.393480
 C         0.051138        -0.166131         0.226085
 H         0.704679         2.852562         1.257295
 H         1.512993         4.062533         0.122114
 H         0.293255         2.947774        -0.239274
 H         4.029334         1.983119         0.856875
 H         2.801057         1.224566         2.111953
 H         3.027638        -0.884544        -1.262698
 H         3.171466         2.052051        -2.032604
 H         0.353395        -0.585763         1.168694
 H        -0.640276         0.672969         0.309217
 H        -0.395168        -0.997660        -0.517552
