19
Iteration:  3633charge 0 multiplicity 1
 C         1.376352         3.176009         0.204809
 C         1.967706         1.771307         0.083760
 C         2.950786         1.203082         1.059448
 O         3.619826         0.104916         0.416741
 C         2.695455        -0.060299        -0.728854
 C         2.485523         1.339174        -1.307222
 O         1.142831         0.925704        -1.839990
 C         1.283788         0.456543        -0.369131
 C         0.130779        -0.332636         0.168261
 H         0.731346         3.286051         1.080672
 H         2.112985         4.053631         0.464718
 H         0.885306         3.440820        -0.669542
 H         3.711027         1.988844         1.252707
 H         2.556426         0.899683         2.038006
 H         2.759421        -1.020651        -1.363305
 H         2.976232         1.873306        -2.155690
 H         0.336245        -0.621352         1.175387
 H        -0.826188         0.259856         0.088751
 H        -0.046704        -1.108939        -0.653206
