19
Iteration:  3710charge 0 multiplicity 1
 C         1.164111         2.975918         0.324396
 C         2.055080         1.816472         0.041621
 C         3.137509         1.303941         1.050800
 O         3.485287        -0.043586         0.447702
 C         2.755006        -0.008182        -0.698033
 C         2.523681         1.374899        -1.411894
 O         1.246142         0.941272        -1.918214
 C         1.267663         0.421962        -0.397086
 C         0.051794        -0.175219         0.220927
 H         0.681923         2.854956         1.272054
 H         1.500254         4.039798         0.130470
 H         0.309022         2.929102        -0.274077
 H         4.037031         1.972395         0.805104
 H         2.852424         1.232576         2.156750
 H         3.043487        -0.911861        -1.274338
 H         3.196350         2.050199        -2.023687
 H         0.368037        -0.552939         1.166131
 H        -0.637885         0.681549         0.316830
 H        -0.426923        -1.000587        -0.500791
