19
Iteration:   976charge 0 multiplicity 1
 C         1.199998         3.043593         0.334895
 C         1.945998         1.726828         0.021142
 C         3.200504         1.367966         0.892450
 O         3.590472         0.020718         0.436962
 C         2.690137        -0.043455        -0.651062
 C         2.503295         1.317144        -1.357703
 O         1.226411         0.964886        -1.813616
 C         1.225563         0.446680        -0.412982
 C         0.034379        -0.244638         0.199445
 H         0.668622         3.004433         1.329711
 H         1.897639         3.897229         0.103238
 H         0.397697         3.139434        -0.455052
 H         4.078979         2.104943         0.697351
 H         3.049031         1.399201         1.941229
 H         2.851459        -1.028774        -1.325598
 H         3.307857         1.900071        -1.864133
 H         0.156995        -0.397639         1.245381
 H        -0.909808         0.265632         0.159407
 H        -0.084540        -1.244859        -0.301136
