19
Iteration:   995charge 0 multiplicity 1
 C         1.255606         2.992662         0.231337
 C         2.038770         1.684162         0.099265
 C         3.093706         1.299350         1.077743
 O         3.627758         0.153730         0.350431
 C         2.733168        -0.047541        -0.745724
 C         2.517195         1.302908        -1.371186
 O         1.088907         0.903974        -1.780758
 C         1.300575         0.390671        -0.367270
 C         0.040366        -0.139369         0.166796
 H         0.739169         3.018247         1.152555
 H         1.900729         3.931393         0.225611
 H         0.450504         3.119770        -0.622053
 H         3.915355         1.987811         1.275178
 H         2.645979         1.075864         2.077897
 H         2.911121        -0.911708        -1.282683
 H         2.985411         1.992970        -2.203549
 H         0.092017        -0.158095         1.232579
 H        -0.706401         0.657881        -0.127738
 H        -0.068243        -1.254646        -0.117323
