19
Iteration:  1363charge 0 multiplicity 1
 C         1.139399         2.938072         0.226037
 C         2.051977         1.754437        -0.016859
 C         3.194355         1.435870         0.878489
 O         3.365308        -0.025747         0.581538
 C         2.683233        -0.122633        -0.644350
 C         2.513532         1.367845        -1.362990
 O         1.226746         1.022411        -1.830097
 C         1.281556         0.489129        -0.451920
 C         0.172197        -0.245285         0.254786
 H         0.341551         2.700248         0.885792
 H         1.571708         3.834271         0.554972
 H         0.716840         3.164352        -0.842999
 H         4.150310         2.061724         0.533353
 H         3.054171         1.573856         1.899859
 H         3.081861        -0.943901        -1.113688
 H         3.189031         1.820685        -2.153439
 H         0.810070        -0.692646         0.932063
 H        -0.521038         0.417939         0.776739
 H        -0.228456        -1.111940        -0.271655
