19
Iteration:  4184charge 0 multiplicity 1
 C         1.243234         3.062388         0.183279
 C         2.036955         1.777218         0.077786
 C         2.985853         1.277547         1.169649
 O         3.539100         0.048763         0.359899
 C         2.761301        -0.004811        -0.704412
 C         2.617544         1.277291        -1.400781
 O         1.117504         1.002926        -1.779363
 C         1.306690         0.493774        -0.429957
 C         0.088229        -0.301154         0.155906
 H         0.834396         3.166749         1.155960
 H         1.928144         3.920434        -0.146997
 H         0.272948         3.071031        -0.416491
 H         3.763743         1.994146         1.372346
 H         2.588930         0.931831         2.116949
 H         3.024238        -0.913893        -1.217727
 H         3.219180         1.840020        -2.044911
 H         0.484241        -0.757219         1.164418
 H        -0.888423         0.243055         0.405992
 H        -0.128342        -1.125769        -0.480894
