19
Iteration:  2583
 C         1.238330         3.085362         0.209449
 C         1.990220         1.753278         0.034352
 C         3.121680         1.376911         1.020263
 O         3.490429         0.005541         0.506802
 C         2.771145        -0.052724        -0.740520
 C         2.537518         1.343305        -1.375805
 O         1.112729         0.977903        -1.849270
 C         1.224696         0.410226        -0.421773
 C         0.182950        -0.303315         0.230863
 H         0.730499         2.985828         1.224058
 H         2.001785         3.987628         0.078070
 H         0.603575         3.492343        -0.506311
 H         4.109932         1.936691         1.050931
 H         2.579501         1.376472         2.074088
 H         2.993819        -1.033346        -1.081296
 H         3.181987         1.812347        -2.134421
 H         0.341463        -0.979284         1.181157
 H        -0.587464         0.548334         0.363912
 H        -0.326239        -1.040241        -0.436015
