19
Iteration:  3259charge 0 multiplicity 1
 C         1.308784         3.119296         0.218269
 C         1.988879         1.767237         0.079083
 C         3.066601         1.320320         0.974183
 O         3.463458        -0.001625         0.509234
 C         2.729287         0.008835        -0.751111
 C         2.535218         1.323749        -1.373606
 O         1.221851         0.944436        -1.793594
 C         1.268609         0.447091        -0.375166
 C         0.086783        -0.339250         0.147682
 H         0.900358         3.125276         1.213313
 H         1.871583         4.051340         0.166286
 H         0.464792         3.198947        -0.519439
 H         3.795636         2.164992         0.959379
 H         2.792309         1.233758         2.124906
 H         3.068427        -0.904183        -1.419810
 H         3.096579         1.944957        -2.132932
 H         0.297782        -0.510377         1.291436
 H        -0.909039         0.248121         0.078041
 H        -0.071948        -1.229026        -0.422563
