19
Iteration:   687
 C         1.222235         3.011725         0.346896
 C         2.056398         1.798216        -0.036211
 C         3.091633         1.313683         0.955041
 O         3.453298        -0.007805         0.465647
 C         2.694247        -0.011504        -0.720449
 C         2.528825         1.345185        -1.397007
 O         1.198070         0.947408        -1.854398
 C         1.256520         0.555186        -0.415464
 C         0.167915        -0.276157         0.239654
 H         0.771423         2.753084         1.345066
 H         1.717281         3.962588         0.435088
 H         0.440483         3.084391        -0.321441
 H         4.039827         1.985667         1.046334
 H         2.591201         1.194073         1.883130
 H         2.815015        -1.070219        -1.235397
 H         3.238759         1.806880        -2.075910
 H         0.621077        -1.085703         0.953443
 H        -0.408469         0.465767         0.820580
 H        -0.381885        -0.783001        -0.488291
