19
Iteration:   466charge 0 multiplicity 1
 C         1.249054         3.054545         0.258429
 C         2.049500         1.730089         0.135740
 C         3.087997         1.191570         1.125877
 O         3.658064         0.130497         0.371657
 C         2.840613         0.055948        -0.756396
 C         2.443317         1.320507        -1.378401
 O         1.130139         0.839551        -1.747926
 C         1.255985         0.388643        -0.453021
 C        -0.024036        -0.132461         0.130440
 H         0.633054         3.315635         1.142120
 H         1.894658         3.843213         0.096412
 H         0.630201         3.085204        -0.659100
 H         3.876157         2.022039         1.447842
 H         2.703811         0.812116         2.026557
 H         3.138964        -0.740461        -1.377533
 H         2.904827         1.894520        -2.177652
 H         0.089653        -1.036290         0.688252
 H        -0.664485         0.636855         0.653551
 H        -0.559750        -0.483358        -0.750910
