19
Iteration:  3012
 C         1.184613         2.996425         0.213153
 C         1.932182         1.688232         0.003723
 C         3.143910         1.371853         0.963525
 O         3.430968         0.046466         0.486766
 C         2.707343        -0.098560        -0.649015
 C         2.548206         1.327428        -1.363383
 O         1.246436         1.062778        -1.922120
 C         1.304416         0.382250        -0.368741
 C         0.180963        -0.222745         0.270626
 H         0.586586         2.984416         1.206680
 H         1.759936         3.919412         0.260924
 H         0.435488         3.051161        -0.510921
 H         3.998730         2.119772         0.739965
 H         2.779722         1.373097         2.028035
 H         2.745167        -1.201631        -1.088438
 H         3.262823         1.987542        -1.892357
 H         0.598683        -0.775724         1.094854
 H        -0.440144         0.644469         0.409082
 H        -0.503239        -1.008801        -0.306455
