19
Iteration:  4482
 C         1.229015         3.065463         0.292299
 C         1.962284         1.755345         0.069695
 C         3.075378         1.331454         1.046652
 O         3.358932        -0.023394         0.487411
 C         2.764159         0.034839        -0.747493
 C         2.576656         1.406664        -1.346293
 O         1.194820         0.960140        -1.857480
 C         1.300500         0.385792        -0.498805
 C         0.179990        -0.328171         0.195452
 H         0.902798         3.051856         1.328303
 H         1.867340         3.976586         0.089999
 H         0.496066         3.254639        -0.432810
 H         4.083205         1.894786         1.056978
 H         2.722150         1.235738         2.168811
 H         3.064856        -0.871735        -1.390775
 H         3.266691         1.974202        -1.980799
 H         0.437803        -0.402571         1.220118
 H        -0.472799         0.496403        -0.044103
 H        -0.210546        -1.238789        -0.414963
