19
Iteration:   942
 C         1.288481         3.014048         0.394649
 C         2.091683         1.795323        -0.036983
 C         3.252740         1.424993         0.879724
 O         3.297749         0.038872         0.589767
 C         2.652916        -0.000049        -0.653100
 C         2.477924         1.337583        -1.444850
 O         1.126901         0.928091        -1.798218
 C         1.278117         0.394995        -0.434072
 C         0.214838        -0.322739         0.143835
 H         0.845292         3.038128         1.373932
 H         1.813690         4.036651         0.398962
 H         0.418597         3.120130        -0.398881
 H         4.319646         1.815294         0.624031
 H         2.917284         1.646845         1.849866
 H         2.856526        -0.942071        -1.245687
 H         3.142489         1.906054        -2.216588
 H         0.590290        -0.943939         0.851583
 H        -0.592903         0.346941         0.423761
 H        -0.114489        -1.046363        -0.691597
