19
Iteration:  2256charge 0 multiplicity 1
 C         1.171427         3.008935         0.162162
 C         1.967359         1.733015        -0.029249
 C         3.079025         1.258281         1.075937
 O         3.649833         0.132613         0.435759
 C         2.744734        -0.021077        -0.820641
 C         2.570299         1.290307        -1.338426
 O         1.211084         0.902407        -1.824074
 C         1.254104         0.459232        -0.342257
 C         0.034101        -0.170704         0.276901
 H         0.615576         3.034684         1.131425
 H         1.852927         3.878114         0.091850
 H         0.607686         3.144802        -0.654046
 H         3.827772         1.979872         1.420152
 H         2.479699         0.825486         1.965098
 H         2.816136        -0.967948        -1.330753
 H         3.124834         1.994097        -1.900354
 H         0.342329        -0.567874         1.265990
 H        -0.768350         0.664637         0.413942
 H        -0.435977        -1.061744        -0.190220
