19
Iteration:  2726charge 0 multiplicity 1
 C         1.305732         3.064440         0.252699
 C         2.070339         1.791172         0.017054
 C         3.105269         1.425551         1.053274
 O         3.489317        -0.005193         0.557258
 C         2.715413        -0.073548        -0.792740
 C         2.535046         1.331851        -1.440453
 O         1.096149         0.982185        -1.858117
 C         1.238768         0.484011        -0.416711
 C         0.120377        -0.349802         0.211272
 H         0.672463         2.936731         1.211695
 H         1.859669         4.079932         0.082361
 H         0.620084         2.988071        -0.531298
 H         3.986257         2.085326         1.136658
 H         2.790403         1.386101         2.101595
 H         3.092086        -0.981883        -1.216614
 H         3.131773         1.913336        -2.087870
 H         0.343344        -0.685644         1.312203
 H        -0.918228         0.092542         0.153929
 H         0.041026        -1.347817        -0.145808
