19
Iteration:  2411charge 0 multiplicity 1
 C         1.288872         3.082575         0.129066
 C         1.984104         1.746024         0.029959
 C         2.987627         1.269815         1.119099
 O         3.624386         0.086363         0.319804
 C         2.791425        -0.028480        -0.649349
 C         2.500572         1.338367        -1.402907
 O         1.182422         0.906155        -1.827653
 C         1.260808         0.446559        -0.387813
 C         0.052608        -0.239244         0.259689
 H         0.628842         3.163735         1.104484
 H         1.997382         3.937212         0.202098
 H         0.456293         3.122561        -0.564459
 H         3.837429         1.938503         1.405660
 H         2.413146         0.968482         2.073469
 H         3.021647        -1.060222        -1.232153
 H         3.208246         2.056593        -1.867554
 H         0.420025        -0.736357         1.277165
 H        -0.724538         0.411502         0.699024
 H        -0.472760        -0.889924        -0.337534
