19
Iteration:  3427charge 0 multiplicity 1
 C         1.197556         3.104118         0.191057
 C         2.025520         1.779495         0.052539
 C         3.122350         1.292445         1.012922
 O         3.418498        -0.037757         0.537011
 C         2.668461        -0.028202        -0.773015
 C         2.540206         1.409294        -1.365618
 O         1.166186         0.943554        -1.809320
 C         1.284687         0.461068        -0.411282
 C         0.217023        -0.304912         0.160155
 H         0.928119         3.197799         1.239031
 H         1.981206         3.938045         0.092674
 H         0.290047         3.259604        -0.288813
 H         4.092983         1.859244         0.778547
 H         2.902574         1.388711         2.161209
 H         2.870116        -0.986096        -1.210301
 H         3.290948         1.989036        -1.915107
 H         0.550356        -0.495123         1.137049
 H        -0.730923         0.230370         0.207442
 H        -0.125392        -1.257052        -0.427900
