19
Iteration:   490
 C         1.232365         3.012136         0.348853
 C         2.046593         1.759251         0.007664
 C         3.151245         1.420336         0.942322
 O         3.599547         0.027347         0.426369
 C         2.717009        -0.075448        -0.651667
 C         2.480630         1.357167        -1.349297
 O         1.174862         0.939000        -1.766966
 C         1.293100         0.396814        -0.359762
 C        -0.024166        -0.250377         0.045101
 H         0.692349         2.996505         1.351480
 H         1.975408         3.855601         0.367172
 H         0.562332         3.298473        -0.404488
 H         3.940459         2.217277         0.971175
 H         2.825826         1.203928         1.999056
 H         2.890568        -1.061031        -1.291064
 H         3.027286         2.000895        -2.005403
 H         0.188059        -1.131188         0.770074
 H        -0.686164         0.516177         0.484854
 H        -0.482688        -0.619970        -0.772795
