19
Iteration:  1233
 C         1.157918         3.059562         0.292650
 C         2.044336         1.832049        -0.008672
 C         3.241244         1.387130         0.919965
 O         3.397448        -0.012700         0.584441
 C         2.701678        -0.043368        -0.689643
 C         2.577033         1.302871        -1.460537
 O         1.102258         0.961323        -1.763854
 C         1.320032         0.400928        -0.431409
 C         0.179917        -0.300755         0.197698
 H         0.493457         2.760991         1.101933
 H         1.660701         4.019185         0.405713
 H         0.494771         3.316434        -0.666948
 H         4.172894         1.899624         0.573600
 H         3.094243         1.621363         1.947153
 H         2.825569        -0.877603        -1.231229
 H         3.263525         1.920089        -2.142401
 H         0.150717        -0.228770         1.223695
 H        -0.749190         0.211441        -0.126675
 H         0.009928        -1.305608        -0.229039
