19
Iteration:  2302charge 0 multiplicity 1
 C         1.233251         2.993574         0.241834
 C         2.057241         1.725318        -0.000456
 C         3.083125         1.432590         1.051877
 O         3.564717         0.072801         0.459916
 C         2.747320        -0.067238        -0.696217
 C         2.520954         1.324553        -1.382842
 O         1.121537         0.903219        -1.852103
 C         1.313944         0.427509        -0.389299
 C         0.031401        -0.189234         0.218509
 H         0.860922         2.825433         1.297592
 H         1.878608         3.777864         0.366941
 H         0.564262         3.280376        -0.535795
 H         3.978037         2.100822         1.038073
 H         2.615929         1.228509         2.043784
 H         3.187210        -0.966635        -1.411327
 H         3.141876         1.822737        -2.182453
 H        -0.026366        -0.620188         1.313749
 H        -0.875301         0.421310         0.001020
 H        -0.070326        -1.071092        -0.359859
