19
Iteration:  2352
 C         1.295755         3.096755         0.243775
 C         2.012266         1.779572         0.001959
 C         3.130958         1.357795         0.907977
 O         3.449465         0.016595         0.562271
 C         2.655436        -0.000706        -0.660908
 C         2.486236         1.353434        -1.412031
 O         1.174095         0.940189        -1.840857
 C         1.261728         0.477184        -0.384793
 C         0.184242        -0.391578         0.202402
 H         0.790952         2.918522         1.196949
 H         1.889695         4.132001         0.186875
 H         0.580930         3.186037        -0.584746
 H         4.049695         1.925274         0.818340
 H         2.763023         1.353093         1.955971
 H         2.797763        -0.827641        -1.191371
 H         3.261409         1.864489        -1.937004
 H         0.419117        -0.705788         1.161720
 H        -0.670773         0.310889         0.213617
 H        -0.101131        -1.354890        -0.323704
