19
Iteration:  1461charge 0 multiplicity 1
 C         1.278929         3.148723         0.153363
 C         1.978178         1.779231         0.006329
 C         2.987796         1.259507         1.035659
 O         3.619003         0.024866         0.471890
 C         2.806248        -0.032871        -0.691239
 C         2.506967         1.423101        -1.336451
 O         1.096525         0.849942        -1.782898
 C         1.332743         0.414131        -0.427512
 C         0.062974        -0.259535         0.222698
 H         1.234022         3.379858         1.136099
 H         1.844207         3.815101        -0.358417
 H         0.249289         3.307019        -0.330599
 H         3.854510         1.880987         1.353495
 H         2.434070         0.943269         1.926678
 H         3.029261        -0.798488        -1.420213
 H         3.122441         2.048972        -2.067985
 H         0.146779        -0.222763         1.262948
 H        -0.821960         0.356451        -0.107755
 H         0.095544        -1.320139        -0.151131
