19
Iteration:  3810
 C         1.369420         3.051635         0.276685
 C         2.032755         1.798169         0.021636
 C         3.111223         1.368398         0.966410
 O         3.451057         0.001665         0.583061
 C         2.703345         0.004722        -0.648890
 C         2.524205         1.362127        -1.474263
 O         1.121282         1.067684        -1.793778
 C         1.223243         0.440120        -0.428638
 C         0.120693        -0.446801         0.125552
 H         0.528965         2.815688         0.894435
 H         1.890587         4.058448         0.649070
 H         0.845655         3.291556        -0.609758
 H         4.096374         1.989123         0.824162
 H         2.938802         1.198148         2.086342
 H         2.771182        -0.899978        -1.182997
 H         3.238826         1.776345        -2.197410
 H         0.346566        -0.844952         1.138928
 H        -0.790604         0.144127         0.115678
 H         0.033123        -1.392166        -0.585492
