19
Iteration:  4718charge 0 multiplicity 1
 C         1.330988         3.103889         0.261447
 C         1.948626         1.801814         0.115505
 C         3.047773         1.301526         1.108820
 O         3.579779         0.086295         0.415989
 C         2.770619        -0.006642        -0.667483
 C         2.498193         1.298995        -1.379713
 O         1.166675         0.974078        -1.874984
 C         1.274780         0.390604        -0.387175
 C         0.027528        -0.329856         0.081216
 H         0.629420         3.112367         1.095296
 H         2.107586         3.829847         0.208443
 H         0.812815         3.180058        -0.773841
 H         3.867216         1.973537         1.336877
 H         2.746332         1.045453         2.203409
 H         3.031613        -0.898738        -1.179438
 H         3.154534         1.922858        -2.003454
 H         0.207685        -0.807601         1.054783
 H        -0.856053         0.304480         0.167002
 H        -0.344592        -1.168468        -0.539931
