19
Iteration:  1375charge 0 multiplicity 1
 C         1.173166         2.966703         0.207683
 C         2.047500         1.820075         0.042277
 C         3.232266         1.375978         0.907685
 O         3.382871         0.024623         0.602610
 C         2.728582        -0.047865        -0.661593
 C         2.541046         1.365141        -1.392107
 O         1.154738         0.907735        -1.836017
 C         1.262849         0.440810        -0.465785
 C         0.192610        -0.241655         0.219482
 H         0.393915         2.628499         0.848219
 H         1.662978         3.777582         0.758903
 H         0.560811         3.294991        -0.778542
 H         4.274199         1.894014         0.546755
 H         3.130460         1.494306         1.931719
 H         2.716354        -0.936119        -1.219901
 H         3.160542         2.147570        -2.018618
 H         0.474812        -0.674057         1.113238
 H        -0.643716         0.409821         0.518758
 H        -0.389399        -0.927110        -0.435588
