19
Iteration:  4325charge 0 multiplicity 1
 C         1.290089         3.096488         0.168268
 C         2.038310         1.772712         0.101874
 C         3.004128         1.261247         1.103232
 O         3.493580         0.054884         0.458879
 C         2.731392        -0.057453        -0.696193
 C         2.616750         1.384012        -1.316918
 O         1.111422         1.008409        -1.814986
 C         1.239564         0.416363        -0.532211
 C         0.173181        -0.347590         0.166454
 H         0.862174         3.293027         1.133952
 H         2.008826         3.948334         0.048890
 H         0.346264         3.231461        -0.453123
 H         3.768037         2.066489         1.400652
 H         2.593941         0.945311         2.136681
 H         2.908414        -0.870936        -1.383078
 H         3.104924         1.873244        -2.186963
 H         0.391763        -0.659173         1.263801
 H        -0.775661         0.258779         0.086149
 H         0.070680        -1.227415        -0.465231
