19
Iteration:  2358
 C         1.303961         3.115596         0.222256
 C         2.047892         1.764783        -0.001518
 C         3.131921         1.347407         0.935393
 O         3.454156         0.028481         0.559003
 C         2.650665        -0.038305        -0.675707
 C         2.483644         1.379519        -1.412005
 O         1.188582         0.953433        -1.809225
 C         1.271472         0.453649        -0.413869
 C         0.160476        -0.377582         0.207011
 H         0.681087         3.051052         1.140075
 H         1.925190         3.906707         0.200540
 H         0.444186         3.211574        -0.512931
 H         3.988073         2.098158         1.018515
 H         2.635715         1.388797         1.916166
 H         2.895933        -1.055710        -1.328228
 H         3.053224         1.989267        -2.202157
 H         0.447352        -0.774062         1.277874
 H        -0.761711         0.193345         0.319212
 H        -0.111752        -1.279668        -0.343904
