19
Iteration:  3309charge 0 multiplicity 1
 C         1.231741         2.980585         0.250776
 C         2.049452         1.744634        -0.007467
 C         3.042500         1.334068         1.032445
 O         3.429354         0.062068         0.461570
 C         2.720936        -0.074627        -0.704024
 C         2.645302         1.305991        -1.459761
 O         1.171973         1.057752        -1.813546
 C         1.320264         0.481600        -0.439893
 C         0.099412        -0.330052         0.295619
 H         0.725624         3.094231         1.277971
 H         1.914678         3.843353         0.219032
 H         0.426257         3.173004        -0.517625
 H         3.929296         1.983549         1.124992
 H         2.553348         1.287040         1.958102
 H         3.008329        -0.912954        -1.191489
 H         3.388390         1.865672        -2.037478
 H         0.300953        -0.552933         1.272297
 H        -0.784811         0.266758         0.172963
 H        -0.317359        -1.089897        -0.443142
