19
Iteration:  4918charge 0 multiplicity 1
 C         1.179970         3.060776         0.265992
 C         1.991834         1.751764         0.074188
 C         3.141406         1.332468         1.034151
 O         3.357085        -0.005610         0.496942
 C         2.830883         0.015969        -0.713942
 C         2.510590         1.372881        -1.412310
 O         1.208251         0.978050        -1.867696
 C         1.357805         0.408688        -0.448315
 C         0.126363        -0.284060         0.192220
 H         0.894891         3.047597         1.324947
 H         1.951591         3.938738         0.207793
 H         0.428576         3.003349        -0.483229
 H         4.024473         1.916846         0.961565
 H         2.807912         0.999981         2.065246
 H         2.903950        -0.856036        -1.363641
 H         3.076931         1.987986        -2.072611
 H         0.251982        -0.682502         1.197652
 H        -0.592540         0.538030         0.357569
 H        -0.380228        -1.174056        -0.351012
