19
Iteration:  1510
 C         1.178489         2.991279         0.264506
 C         2.048513         1.791490        -0.054782
 C         3.139763         1.461250         0.882897
 O         3.431743        -0.027025         0.610509
 C         2.667388        -0.092819        -0.663544
 C         2.521246         1.262444        -1.356308
 O         1.207771         1.035237        -1.879841
 C         1.223399         0.518401        -0.445739
 C         0.201204        -0.321278         0.241636
 H         0.518393         2.495652         1.100313
 H         1.617430         4.079291         0.413311
 H         0.502128         3.182141        -0.495155
 H         4.152516         1.979424         0.624962
 H         2.912824         1.558402         1.965028
 H         2.959113        -0.943379        -1.266759
 H         3.393738         1.605971        -1.945499
 H         0.649641        -0.456066         1.302434
 H        -0.609587         0.390088         0.375001
 H        -0.013236        -1.170806        -0.369783
