19
Iteration:  2835
 C         1.219278         3.042010         0.205872
 C         1.988096         1.824895         0.025780
 C         2.992661         1.308469         1.042807
 O         3.601750         0.013551         0.396170
 C         2.800572        -0.102273        -0.686994
 C         2.528674         1.396904        -1.389905
 O         1.219656         0.917503        -1.842218
 C         1.244523         0.394980        -0.433825
 C         0.067566        -0.202010         0.296128
 H         0.641887         3.054706         1.210017
 H         1.778359         4.066471        -0.023102
 H         0.531673         3.054467        -0.606242
 H         3.877221         1.997667         1.299294
 H         2.477413         1.030728         1.991232
 H         3.131499        -0.992069        -1.091712
 H         2.893042         2.027202        -2.149914
 H         0.511540        -0.587918         1.289633
 H        -0.630388         0.621733         0.625448
 H        -0.364577        -0.949592        -0.314059
