19
Iteration:   985charge 0 multiplicity 1
 C         1.238831         2.979576         0.273949
 C         1.977469         1.756180         0.088403
 C         3.122828         1.343302         0.973327
 O         3.606591         0.086928         0.373361
 C         2.712869        -0.101271        -0.681556
 C         2.488347         1.340712        -1.310418
 O         1.150558         0.929629        -1.822168
 C         1.270887         0.442672        -0.394649
 C         0.078204        -0.185491         0.202165
 H         0.773518         3.050356         1.244889
 H         1.963605         3.871846         0.211582
 H         0.420871         3.054073        -0.570618
 H         3.866447         2.166057         0.843084
 H         2.987528         1.072944         1.998746
 H         2.926115        -1.000771        -1.252839
 H         3.259938         1.821737        -2.060538
 H         0.089316        -0.259398         1.246114
 H        -0.806372         0.413582        -0.148702
 H        -0.186091        -1.184042        -0.325966
