19
Iteration:   904
 C         1.313194         3.154569         0.205276
 C         1.999338         1.788059         0.096531
 C         3.071780         1.289735         1.025063
 O         3.566044         0.102206         0.385831
 C         2.665143        -0.041856        -0.719131
 C         2.511738         1.313466        -1.334968
 O         1.167397         0.966498        -1.868637
 C         1.255245         0.418281        -0.405927
 C         0.096565        -0.363406         0.237368
 H         0.714098         3.218871         1.174518
 H         2.126189         3.857459         0.204767
 H         0.690873         3.309568        -0.637407
 H         3.803363         1.951349         1.375748
 H         2.454256         0.946571         1.975210
 H         2.905999        -0.949406        -1.306054
 H         3.070486         1.742044        -2.128697
 H         0.594979        -1.110083         1.056577
 H        -0.398495         0.334805         0.964510
 H        -0.571367        -0.921977        -0.393560
