19
Iteration:  1079
 C         1.210612         3.046772         0.258513
 C         2.042082         1.824195        -0.072634
 C         3.186150         1.401936         0.876720
 O         3.399848        -0.040247         0.591311
 C         2.741522        -0.078353        -0.640773
 C         2.559630         1.390372        -1.425954
 O         1.101106         0.970880        -1.764423
 C         1.291830         0.472592        -0.430501
 C         0.168984        -0.328591         0.190129
 H         0.821370         2.823918         1.305579
 H         1.918462         3.820837         0.484475
 H         0.362355         3.338264        -0.408340
 H         4.086334         1.937250         0.653250
 H         2.822123         1.604038         1.940547
 H         3.011981        -0.947056        -1.243360
 H         3.017615         1.814336        -2.306316
 H         0.527644        -0.827617         1.126363
 H        -0.812882         0.197266         0.402493
 H        -0.103813        -1.217013        -0.429705
