19
Iteration:   554
 C         1.244197         3.089441         0.289821
 C         2.016200         1.810127         0.042112
 C         3.007380         1.236183         1.074950
 O         3.424632        -0.060822         0.451044
 C         2.780887         0.006141        -0.810533
 C         2.556512         1.404763        -1.433614
 O         1.098371         0.948072        -1.804848
 C         1.325497         0.418641        -0.488109
 C         0.240904        -0.240617         0.258794
 H         0.708302         3.100247         1.269181
 H         1.991923         3.832426         0.356232
 H         0.615924         3.299810        -0.508830
 H         3.928483         1.894167         1.256313
 H         2.589795         1.011701         1.977080
 H         2.964760        -0.873774        -1.527540
 H         3.027494         2.127751        -2.068230
 H         0.351227        -0.137892         1.379818
 H        -0.702378         0.306435         0.136323
 H         0.174033        -1.277424         0.002697
