19
Iteration:  3974charge 0 multiplicity 1
 C         1.318021         3.145582         0.277864
 C         2.002157         1.856597         0.007647
 C         3.180159         1.380276         0.941541
 O         3.358782         0.015859         0.532339
 C         2.677344        -0.067061        -0.677220
 C         2.486672         1.333191        -1.329807
 O         1.215886         0.993479        -1.828304
 C         1.257229         0.432413        -0.436087
 C         0.157072        -0.451964         0.119437
 H         0.616710         2.831522         1.145301
 H         2.172660         3.904021         0.569555
 H         0.729454         3.529752        -0.576442
 H         4.101790         1.952389         1.001605
 H         2.820988         1.357291         1.997083
 H         2.710826        -0.973218        -1.350502
 H         2.965680         2.004029        -2.031964
 H         0.534332        -0.796935         1.108078
 H        -0.763386         0.057253         0.317671
 H         0.047672        -1.380910        -0.467391
