19
Iteration:  2900
 C         1.239766         3.139887         0.251346
 C         2.029287         1.804616        -0.002429
 C         3.150565         1.327338         0.984832
 O         3.430194         0.093481         0.505104
 C         2.734419        -0.056911        -0.705737
 C         2.602537         1.324443        -1.397250
 O         1.090242         0.908102        -1.756913
 C         1.276261         0.444616        -0.414718
 C         0.145460        -0.379103         0.153453
 H         0.670210         3.069892         1.202745
 H         2.014760         4.026141         0.426664
 H         0.551431         3.385003        -0.538268
 H         4.117845         1.970022         0.843893
 H         2.805283         1.189620         2.019491
 H         3.006089        -0.898537        -1.177656
 H         3.295294         1.586903        -2.161838
 H        -0.040205        -0.470336         1.303229
 H        -0.734928         0.300228        -0.114301
 H        -0.075552        -1.262896        -0.388186
