19
Iteration:  4096
 C         1.160313         2.967879         0.367880
 C         2.108821         1.784835        -0.018465
 C         3.162355         1.408435         0.958572
 O         3.438906         0.023565         0.536170
 C         2.719925        -0.037363        -0.683183
 C         2.588140         1.310585        -1.427753
 O         1.190605         0.994450        -1.813636
 C         1.229810         0.427224        -0.460088
 C         0.073185        -0.245768         0.136635
 H         0.540155         2.660724         1.193654
 H         1.846204         3.845304         0.744464
 H         0.509977         3.198483        -0.559800
 H         3.973706         2.130217         0.809003
 H         3.003550         1.371614         2.044018
 H         2.832278        -1.038212        -1.215170
 H         3.206193         1.751712        -2.128932
 H         0.455143        -0.660405         1.158154
 H        -0.879855         0.341707         0.202043
 H         0.009061        -1.096310        -0.473270
