19
Iteration:  2385charge 0 multiplicity 1
 C         1.337501         3.102228         0.124392
 C         1.995569         1.732380         0.041319
 C         3.011816         1.276164         1.077149
 O         3.562235         0.090307         0.454360
 C         2.733287         0.010176        -0.724237
 C         2.519713         1.275525        -1.383847
 O         1.071427         0.956738        -1.787382
 C         1.281260         0.426871        -0.407026
 C         0.189992        -0.311639         0.213146
 H         0.704553         3.224064         1.027967
 H         2.088322         4.030192         0.146596
 H         0.496211         3.100009        -0.539337
 H         3.747970         2.067819         1.283236
 H         2.463174         1.102865         2.029465
 H         2.960416        -0.783663        -1.274167
 H         3.202791         1.801369        -2.050511
 H         0.421325        -0.670735         1.156577
 H        -0.572066         0.468360         0.490257
 H        -0.399015        -1.055498        -0.415999
