19
Iteration:  3567
 C         1.166414         3.022342         0.258652
 C         2.087749         1.845723         0.008100
 C         3.133884         1.317160         1.028511
 O         3.416315         0.026005         0.462207
 C         2.679626        -0.059643        -0.753086
 C         2.606348         1.310555        -1.394885
 O         1.248863         0.959669        -1.778930
 C         1.256056         0.471372        -0.416294
 C         0.129371        -0.242505         0.201787
 H         0.904922         2.792143         1.328724
 H         1.553361         4.171406         0.238406
 H         0.217987         2.892059        -0.238466
 H         3.954885         1.996885         0.940465
 H         2.742053         1.256222         2.016765
 H         2.879083        -1.048125        -1.261652
 H         3.190691         1.803468        -2.180278
 H         0.321289        -0.776054         1.122819
 H        -0.855414         0.310240         0.314565
 H        -0.179971        -0.966048        -0.589314
