19
Iteration:  2564
 C         1.357710         3.082750         0.194566
 C         2.029446         1.823690         0.027414
 C         3.000712         1.245484         1.083603
 O         3.545807         0.108123         0.422031
 C         2.694746        -0.047085        -0.708673
 C         2.496797         1.351084        -1.404555
 O         1.198515         0.918910        -1.795010
 C         1.226987         0.439206        -0.405629
 C         0.096439        -0.298365         0.233213
 H         0.663603         3.150269         1.134427
 H         1.989485         3.984374        -0.060132
 H         0.640709         3.120363        -0.637088
 H         3.703986         2.016354         1.206322
 H         2.666973         1.008835         2.116573
 H         2.867933        -0.926550        -1.438584
 H         3.049083         1.978080        -2.063975
 H         0.672210        -0.823650         1.065327
 H        -0.791277         0.237743         0.494177
 H        -0.123938        -1.156971        -0.270578
