19
Iteration:  3333charge 0 multiplicity 1
 C         1.280440         3.036405         0.263768
 C         2.016379         1.762018         0.028395
 C         2.985199         1.249605         1.089928
 O         3.622852         0.084300         0.429174
 C         2.762737        -0.072555        -0.656794
 C         2.457432         1.327869        -1.376802
 O         1.172089         0.913859        -1.845604
 C         1.299697         0.465945        -0.488631
 C         0.084692        -0.168221         0.207212
 H         0.494429         2.964721         1.113133
 H         1.812889         3.917322         0.468862
 H         0.567011         3.174336        -0.687719
 H         3.818427         1.945128         1.113667
 H         2.555614         1.115693         2.076905
 H         2.957076        -0.954603        -1.344139
 H         3.227560         1.761870        -2.102205
 H         0.565042        -0.561467         1.120931
 H        -0.823715         0.478968         0.390992
 H        -0.445262        -0.846055        -0.475933
