19
Iteration:  3247charge 0 multiplicity 1
 C         1.328716         3.052553         0.253531
 C         2.047630         1.764663        -0.014097
 C         3.097527         1.387466         1.064710
 O         3.549913         0.093603         0.493650
 C         2.748049        -0.077613        -0.667517
 C         2.497542         1.324125        -1.369186
 O         1.149300         0.982891        -1.810451
 C         1.202292         0.419976        -0.461468
 C         0.041941        -0.336741         0.121114
 H         0.792284         3.113802         1.214930
 H         2.092239         3.781314         0.189054
 H         0.540872         3.264991        -0.561819
 H         4.061619         1.882181         1.261045
 H         2.423474         1.190570         2.006593
 H         2.963607        -0.948965        -1.379359
 H         3.236340         1.883931        -2.023071
 H         0.288255        -0.667867         1.229464
 H        -0.877442         0.356693         0.175587
 H        -0.191625        -1.310128        -0.351232
