19
Iteration:  1074charge 0 multiplicity 1
 C         1.200677         3.033483         0.260742
 C         2.053497         1.807521        -0.069434
 C         3.137902         1.404034         0.883058
 O         3.419808        -0.040926         0.586805
 C         2.762434        -0.084647        -0.679710
 C         2.533136         1.394632        -1.394259
 O         1.109312         0.974047        -1.810131
 C         1.300835         0.493010        -0.420881
 C         0.142399        -0.340598         0.239410
 H         0.793289         2.788024         1.268726
 H         2.014708         3.821165         0.378379
 H         0.455037         3.460794        -0.395681
 H         4.070624         2.090807         0.726407
 H         2.861466         1.386131         1.914255
 H         3.072003        -1.048831        -1.299672
 H         3.121810         1.835983        -2.240702
 H         0.527918        -0.584416         1.243189
 H        -0.777558         0.182548         0.392537
 H        -0.101902        -1.171418        -0.421179
