19
Iteration:  3205
 C         1.190495         3.064123         0.229972
 C         2.040813         1.807141         0.036289
 C         3.052289         1.311754         1.044223
 O         3.602342         0.052629         0.381826
 C         2.792244        -0.028011        -0.665545
 C         2.549627         1.379395        -1.348225
 O         1.197931         0.841132        -1.814188
 C         1.270573         0.400228        -0.377296
 C        -0.033666        -0.178653         0.158896
 H         0.628385         3.107726         1.106164
 H         2.036071         3.829505         0.478535
 H         0.755669         3.567477        -0.647677
 H         3.825766         2.001726         1.341280
 H         2.474551         0.880779         1.899302
 H         3.076254        -1.035457        -1.245066
 H         3.096411         1.865386        -2.197530
 H         0.137660        -0.924029         1.009601
 H        -0.868199         0.438652         0.547304
 H        -0.229769        -0.924642        -0.498415
