19
Iteration:  2246
 C         1.218254         2.989677         0.145192
 C         2.026965         1.741907         0.071345
 C         3.012488         1.256705         1.031618
 O         3.570487         0.098260         0.422876
 C         2.782674        -0.006761        -0.695059
 C         2.560694         1.368421        -1.417184
 O         1.194638         0.905655        -1.802475
 C         1.262704         0.458141        -0.422026
 C         0.053712        -0.198017         0.275747
 H         0.633560         3.018623         1.121067
 H         1.818506         3.840382         0.225270
 H         0.517049         2.978929        -0.625247
 H         3.810012         2.003927         1.126930
 H         2.614177         1.091581         2.048858
 H         2.932202        -0.950645        -1.311352
 H         3.192883         1.816339        -2.179291
 H         0.449095        -0.502328         1.281426
 H        -0.758316         0.528390         0.597721
 H        -0.375215        -1.027967        -0.272699
