19
Iteration:   641
 C         1.268302         2.990180         0.403129
 C         2.026449         1.793784        -0.013058
 C         3.170907         1.413087         0.860922
 O         3.451938         0.009024         0.531926
 C         2.718317        -0.066932        -0.668304
 C         2.503988         1.384181        -1.365272
 O         1.167329         0.936891        -1.788178
 C         1.309769         0.375584        -0.439564
 C         0.038768        -0.229448         0.101105
 H         0.831040         2.763842         1.449692
 H         1.889422         3.837393         0.534454
 H         0.464797         3.229456        -0.226686
 H         4.045637         2.005469         0.416662
 H         3.116794         1.476299         1.986350
 H         3.022058        -0.843257        -1.462407
 H         3.077532         1.911076        -2.098610
 H         0.222751        -0.748237         1.119641
 H        -0.748287         0.530443         0.220805
 H        -0.190662        -1.044729        -0.566337
