19
Iteration:  2599
 C         1.229752         3.031277         0.272151
 C         2.018700         1.735512         0.014763
 C         3.119161         1.395678         0.916403
 O         3.437852         0.027826         0.552490
 C         2.731150        -0.071808        -0.662027
 C         2.529896         1.337591        -1.423717
 O         1.170331         0.963317        -1.785750
 C         1.307783         0.450366        -0.424263
 C         0.115593        -0.253012         0.177954
 H         0.705704         2.898851         1.241878
 H         1.838663         3.876627         0.359533
 H         0.518054         3.202761        -0.665060
 H         3.950973         1.985504         0.607946
 H         2.992180         1.306831         1.975802
 H         3.002379        -0.941246        -1.378098
 H         3.147434         1.909116        -2.161174
 H         0.512768        -0.732176         1.007623
 H        -0.644625         0.319746         0.609631
 H        -0.301592        -1.011146        -0.497800
