19
Iteration:  4941charge 0 multiplicity 1
 C         1.160927         2.981503         0.239345
 C         2.066615         1.732198         0.018914
 C         3.043216         1.319753         1.039765
 O         3.610586         0.025579         0.512391
 C         2.705280        -0.083992        -0.745380
 C         2.582575         1.353512        -1.389672
 O         1.139202         0.997190        -1.809581
 C         1.261645         0.494930        -0.445056
 C         0.116693        -0.173631         0.166146
 H         0.682581         2.725703         1.215595
 H         1.693267         3.979796         0.378857
 H         0.587240         2.825664        -0.628726
 H         3.887775         1.938862         1.248864
 H         2.346328         1.070195         1.926733
 H         2.786601        -0.990497        -1.335307
 H         3.293423         2.046061        -1.949025
 H         0.494187        -0.790139         1.075728
 H        -0.681814         0.487533         0.549037
 H        -0.244056        -0.964440        -0.519188
