19
Iteration:  2974charge 0 multiplicity 1
 C         1.209385         2.996103         0.212696
 C         2.037410         1.751258        -0.020022
 C         3.037803         1.271944         1.028892
 O         3.571408         0.047674         0.495544
 C         2.746852        -0.016068        -0.647234
 C         2.524280         1.352025        -1.421865
 O         1.117068         0.876072        -1.813191
 C         1.295292         0.485121        -0.403923
 C         0.171186        -0.150597         0.182344
 H         0.807870         2.981533         1.153085
 H         1.785065         3.933542         0.081364
 H         0.398769         3.054175        -0.563471
 H         3.850120         1.908953         1.299412
 H         2.548885         0.966378         1.929237
 H         2.883683        -0.876061        -1.186680
 H         2.988185         2.042830        -2.131350
 H         0.328317        -0.597258         1.185384
 H        -0.663292         0.522359         0.485412
 H        -0.124779        -0.816551        -0.523095
