19
Iteration:  1393
 C         1.174276         3.091371         0.282134
 C         1.997983         1.805022         0.014543
 C         3.185964         1.418674         0.975778
 O         3.492555         0.009528         0.501275
 C         2.753064        -0.063812        -0.709329
 C         2.513374         1.329278        -1.438119
 O         1.169859         0.849888        -1.817147
 C         1.308765         0.431143        -0.345824
 C         0.070910        -0.240298         0.173117
 H         0.361184         2.883147         1.014290
 H         1.810001         3.886907         0.564158
 H         0.810744         3.447955        -0.607651
 H         3.997635         2.041108         0.913914
 H         2.870284         1.380757         2.068944
 H         3.161331        -0.877761        -1.302459
 H         3.146048         1.639299        -2.200094
 H         0.212707        -0.715281         1.179161
 H        -0.753892         0.522600         0.342510
 H        -0.186570        -1.039948        -0.526778
