19
Iteration:  3280charge 0 multiplicity 1
 C         1.193091         3.086894         0.228302
 C         1.986669         1.768370         0.057335
 C         3.203581         1.312959         1.007017
 O         3.421052        -0.054661         0.528903
 C         2.644445        -0.062028        -0.654548
 C         2.515171         1.422516        -1.344946
 O         1.169602         0.929471        -1.857540
 C         1.282848         0.488199        -0.495830
 C         0.242989        -0.297242         0.147028
 H         0.861392         3.388107         1.231633
 H         1.878978         3.891361         0.009193
 H         0.396631         3.280938        -0.601236
 H         4.182076         1.858640         1.058440
 H         2.772489         1.333925         2.119100
 H         2.848195        -0.939126        -1.407760
 H         3.258927         2.125173        -1.862367
 H         0.352538        -0.399713         1.349477
 H        -0.775909         0.285568         0.123271
 H         0.025151        -1.284275        -0.276504
