19
Iteration:  3123
 C         1.211339         3.110510         0.213727
 C         2.001029         1.764294         0.015466
 C         3.078375         1.233694         1.077916
 O         3.473886         0.042548         0.489838
 C         2.730119        -0.043825        -0.719691
 C         2.610035         1.369063        -1.401633
 O         1.137371         0.878632        -1.817408
 C         1.295997         0.533830        -0.442353
 C         0.164145        -0.260472         0.203278
 H         0.827551         3.217967         1.282211
 H         1.899669         3.893792         0.059269
 H         0.348504         3.176553        -0.410546
 H         3.976943         1.934722         0.956393
 H         2.876310         1.172369         2.195529
 H         2.815939        -1.055238        -1.107942
 H         2.946635         2.102812        -2.125720
 H         0.379354        -0.535863         1.205932
 H        -0.774181         0.265500         0.084552
 H        -0.088354        -1.218208        -0.441373
