19
Iteration:   269
 C         1.111418         2.965059         0.298931
 C         2.073215         1.813911        -0.001195
 C         3.106052         1.363136         1.040398
 O         3.409208         0.013362         0.508466
 C         2.643858        -0.061071        -0.721263
 C         2.566399         1.285780        -1.429882
 O         1.253048         1.034532        -1.904687
 C         1.300624         0.482115        -0.476968
 C         0.221438        -0.264659         0.269138
 H         0.612944         2.864360         1.293098
 H         1.557808         3.922894         0.251254
 H         0.262578         2.936472        -0.528701
 H         4.065424         1.815626         0.939894
 H         2.686587         1.455538         2.098451
 H         2.908927        -1.061352        -1.159511
 H         3.272151         1.799308        -2.172639
 H         0.665828        -0.735081         1.255342
 H        -0.501262         0.467495         0.716229
 H        -0.321444        -1.058674        -0.292080
