19
Iteration:  1511charge 0 multiplicity 1
 C         1.181684         2.993763         0.263168
 C         2.048498         1.800472        -0.043972
 C         3.145628         1.457647         0.884430
 O         3.431770        -0.023404         0.608102
 C         2.669245        -0.097912        -0.662678
 C         2.522073         1.265997        -1.362901
 O         1.205320         1.024383        -1.882424
 C         1.229853         0.513922        -0.446335
 C         0.203034        -0.317284         0.238252
 H         0.474882         2.474692         1.099024
 H         1.628130         4.079618         0.445081
 H         0.512451         3.183445        -0.511666
 H         4.113622         1.970667         0.628405
 H         2.911665         1.568394         2.006003
 H         2.951900        -0.907296        -1.275430
 H         3.334796         1.601347        -1.923974
 H         0.632057        -0.449887         1.276767
 H        -0.621503         0.395350         0.402084
 H        -0.055057        -1.150347        -0.378717
