19
Iteration:  4382
 C         1.256128         3.050033         0.327562
 C         1.985824         1.765700         0.088655
 C         3.104020         1.371406         0.963166
 O         3.413604         0.022212         0.486337
 C         2.763608        -0.015788        -0.660798
 C         2.521111         1.337827        -1.291812
 O         1.244046         0.963666        -1.854402
 C         1.307772         0.380555        -0.539784
 C         0.073859        -0.292891         0.128483
 H         0.712897         2.953770         1.233140
 H         1.915285         4.014012         0.428251
 H         0.510155         3.138489        -0.494176
 H         3.932879         2.155346         0.820575
 H         2.676578         1.179022         2.006194
 H         3.012559        -0.816976        -1.283156
 H         3.102753         1.865291        -2.016394
 H         0.589533        -0.706196         0.997520
 H        -0.551400         0.582155         0.319549
 H        -0.491307        -1.123708        -0.489811
