19
Iteration:  1545
 C         1.248296         3.074969         0.212091
 C         1.960494         1.791879         0.005521
 C         3.058195         1.336002         1.014688
 O         3.601483         0.091003         0.454857
 C         2.816119        -0.033358        -0.705257
 C         2.489139         1.325052        -1.399436
 O         1.179067         0.788943        -1.806782
 C         1.306994         0.394957        -0.364952
 C         0.046607        -0.181843         0.203111
 H         0.284501         2.910504         0.874885
 H         1.866289         3.715625         0.894569
 H         0.939809         3.496877        -0.713750
 H         3.828288         2.102964         1.109594
 H         2.585374         1.201997         2.059407
 H         3.042295        -0.782338        -1.398526
 H         3.010174         1.885173        -2.063220
 H         0.130562        -0.883088         1.009181
 H        -0.590576         0.624118         0.608855
 H        -0.607116        -0.669626        -0.523186
