19
Iteration:  1381
 C         1.154249         3.022782         0.223747
 C         2.057472         1.787944        -0.000458
 C         3.255869         1.380059         0.947126
 O         3.405824         0.021405         0.584869
 C         2.717682         0.001884        -0.688674
 C         2.565544         1.361012        -1.398708
 O         1.133713         0.870886        -1.843960
 C         1.302565         0.422533        -0.440237
 C         0.147446        -0.244829         0.226745
 H         0.264520         2.825584         0.934667
 H         1.689691         3.804664         0.787413
 H         0.664678         3.295849        -0.617856
 H         4.086243         1.899691         0.649594
 H         3.114415         1.481738         2.095496
 H         2.741178        -0.979279        -1.260186
 H         3.070645         1.987440        -2.044519
 H         0.376701        -0.810868         1.208278
 H        -0.671543         0.519077         0.313235
 H        -0.297964        -0.900388        -0.535275
