19
Iteration:  3326charge 0 multiplicity 1
 C         1.252720         3.015973         0.244231
 C         2.009234         1.753620         0.004536
 C         2.994747         1.311274         1.049582
 O         3.584427         0.092181         0.461743
 C         2.715460        -0.077238        -0.726855
 C         2.522818         1.300127        -1.361011
 O         1.182996         0.973611        -1.822439
 C         1.266952         0.402866        -0.436543
 C         0.133540        -0.162249         0.164207
 H         0.723638         2.842338         1.147459
 H         1.872850         3.951854         0.445120
 H         0.611166         3.250719        -0.561986
 H         3.819171         2.020769         1.291513
 H         2.569298         0.990279         2.093218
 H         2.781268        -1.082955        -1.291926
 H         3.146053         1.749097        -2.131159
 H         0.490550        -0.620214         1.180223
 H        -0.691834         0.529421         0.496850
 H        -0.262270        -1.033404        -0.343163
