19
Iteration:  1674
 C         1.206725         3.078862         0.303079
 C         2.029075         1.783702         0.027870
 C         3.062426         1.363849         0.993234
 O         3.507022         0.054491         0.514991
 C         2.742201        -0.042390        -0.706134
 C         2.550181         1.253761        -1.407227
 O         1.171537         0.882590        -1.878598
 C         1.272734         0.485924        -0.414048
 C         0.120864        -0.248895         0.183576
 H         0.743934         3.058081         1.290165
 H         1.861055         3.982536         0.106459
 H         0.498181         3.190692        -0.441266
 H         3.953330         2.095798         1.004012
 H         2.682812         1.284671         1.961848
 H         2.915994        -0.946634        -1.158604
 H         3.260821         1.862742        -2.126842
 H         0.212873        -0.294294         1.337184
 H        -0.875057         0.170531        -0.069222
 H         0.159131        -1.317457        -0.034273
