19
Iteration:  1791
 C         1.198325         3.028121         0.284784
 C         2.055062         1.855695        -0.048092
 C         3.161955         1.387475         0.929324
 O         3.355819         0.000033         0.608435
 C         2.651039        -0.065117        -0.628624
 C         2.557087         1.359080        -1.380374
 O         1.204294         0.951911        -1.918774
 C         1.253313         0.459406        -0.483182
 C         0.236641        -0.355746         0.250261
 H         0.944226         3.024144         1.311542
 H         1.653017         4.017929        -0.119533
 H         0.146503         2.932700        -0.358666
 H         4.034618         1.974380         0.710530
 H         2.892490         1.607754         2.083842
 H         2.857366        -0.876594        -1.223837
 H         3.354310         1.850492        -1.992525
 H         0.625656        -0.861411         1.202417
 H        -0.567304         0.364805         0.461086
 H        -0.187416        -1.113170        -0.380626
