19
Iteration:  4027charge 0 multiplicity 1
 C         1.330154         3.056948         0.199994
 C         1.937537         1.728797         0.078368
 C         2.944558         1.214668         1.095276
 O         3.589265         0.153285         0.389911
 C         2.791037        -0.038377        -0.751695
 C         2.564984         1.401765        -1.364062
 O         1.172576         0.952696        -1.820836
 C         1.346064         0.333433        -0.439315
 C         0.001500        -0.218789         0.242442
 H         0.881043         3.263054         1.259583
 H         2.008635         3.869061         0.023963
 H         0.507768         3.071774        -0.471420
 H         3.703481         1.906570         1.388000
 H         2.475963         0.908519         2.042334
 H         3.085668        -0.872904        -1.421258
 H         3.228596         1.888372        -2.138632
 H         0.188713        -0.691524         1.205783
 H        -0.743333         0.547131         0.412931
 H        -0.430688        -1.144461        -0.324395
