19
Iteration:  4005
 C         1.363452         3.079918         0.249058
 C         1.976236         1.785550         0.028993
 C         3.009710         1.304968         1.073329
 O         3.601011         0.062003         0.495911
 C         2.728294        -0.043434        -0.702177
 C         2.521241         1.294270        -1.392771
 O         1.088038         0.938906        -1.835800
 C         1.258334         0.525674        -0.444112
 C         0.151774        -0.304856         0.123459
 H         0.795092         3.256210         1.260768
 H         2.008889         3.937046         0.303896
 H         0.606419         3.307164        -0.454300
 H         3.763128         1.952973         1.443069
 H         2.470337         0.932585         1.950241
 H         2.750151        -1.006631        -1.225083
 H         2.976325         1.988691        -2.159995
 H         0.439333        -0.769081         1.046806
 H        -0.792107         0.147346         0.365918
 H        -0.066954        -1.282890        -0.507233
