19
Iteration:  4980charge 0 multiplicity 1
 C         1.262814         3.006311         0.274542
 C         2.004275         1.765455         0.117825
 C         3.034136         1.315351         1.079544
 O         3.584090         0.089280         0.398663
 C         2.779085        -0.029921        -0.790460
 C         2.592948         1.340726        -1.354798
 O         1.175093         0.886799        -1.835084
 C         1.301161         0.415641        -0.426045
 C         0.003935        -0.220178         0.189992
 H         0.375767         3.060795         0.857866
 H         1.799949         3.921913         0.563762
 H         0.683439         3.261965        -0.641332
 H         3.722725         2.174438         1.357872
 H         2.629212         0.933077         1.990527
 H         2.844729        -0.954734        -1.426471
 H         3.157231         1.999380        -1.953229
 H         0.282373        -0.688381         1.054226
 H        -0.670614         0.599410         0.446152
 H        -0.621788        -0.869908        -0.537852
