19
Iteration:  4467
 C         1.224872         3.027503         0.257370
 C         2.002577         1.722704         0.065251
 C         3.073113         1.251962         1.089919
 O         3.524189         0.034717         0.541010
 C         2.758164        -0.048542        -0.791946
 C         2.552702         1.441623        -1.313227
 O         1.150825         0.944973        -1.875094
 C         1.307857         0.402613        -0.514633
 C         0.097668        -0.182053         0.122869
 H         0.672690         3.096591         1.191152
 H         2.068874         3.826981         0.281032
 H         0.378915         3.050330        -0.529510
 H         3.820407         2.079347         1.141899
 H         2.711642         1.169303         2.102051
 H         3.018074        -0.819606        -1.424395
 H         3.098979         2.132501        -1.974645
 H         0.336070        -0.485728         1.178125
 H        -0.870940         0.249232         0.402872
 H        -0.155574        -1.185576        -0.196224
