19
Iteration:  1940
 C         1.171182         2.980588         0.260544
 C         2.032689         1.831656        -0.007697
 C         3.129123         1.425106         1.040378
 O         3.399832         0.010520         0.554905
 C         2.717782        -0.078260        -0.688249
 C         2.568954         1.362399        -1.473901
 O         1.214278         0.923813        -1.892081
 C         1.266803         0.426190        -0.480826
 C         0.164164        -0.261884         0.259240
 H         0.877555         2.786595         1.437917
 H         1.665558         3.914931         0.284781
 H         0.227296         2.976232        -0.274972
 H         4.042314         2.179656         0.871133
 H         2.920634         1.368085         2.082926
 H         2.965112        -1.030914        -1.295175
 H         3.249525         1.861069        -2.132318
 H         0.534752        -0.407379         1.273736
 H        -0.633773         0.489948         0.313573
 H        -0.205181        -1.138813        -0.267294
