19
Iteration:  3775
 C         1.347947         3.168870         0.222383
 C         1.948255         1.717311         0.071127
 C         2.949912         1.262639         1.013740
 O         3.580913         0.023748         0.374883
 C         2.723782         0.034046        -0.694591
 C         2.557649         1.389120        -1.292915
 O         1.201281         0.909856        -1.788329
 C         1.269256         0.412128        -0.403914
 C         0.077081        -0.309734         0.169229
 H         0.672100         3.169409         1.145418
 H         2.112577         4.012632         0.241277
 H         0.754025         3.270197        -0.654987
 H         3.803887         2.050176         1.077376
 H         2.598041         0.939039         2.075686
 H         2.866732        -0.745621        -1.427374
 H         3.096599         2.045934        -2.033695
 H         0.340151        -0.718674         1.101489
 H        -0.796743         0.310644         0.384310
 H        -0.364714        -1.186719        -0.496652
