19
Iteration:  1752
 C         1.213635         3.009986         0.189089
 C         2.027455         1.742302         0.027604
 C         3.060105         1.358646         1.007802
 O         3.596627         0.125936         0.461120
 C         2.706842        -0.022198        -0.665175
 C         2.557582         1.301033        -1.333040
 O         1.122773         0.896113        -1.840831
 C         1.331955         0.378012        -0.386336
 C         0.090496        -0.205636         0.196523
 H         0.411618         2.835889         0.970979
 H         1.771226         3.891851         0.476085
 H         0.711834         3.124911        -0.674386
 H         3.928631         2.061478         1.196671
 H         2.646065         1.132077         1.915345
 H         2.959431        -0.963896        -1.222978
 H         3.216270         1.746375        -2.110610
 H         0.118387        -0.587179         1.202210
 H        -0.600500         0.668446         0.263056
 H        -0.444204        -0.829463        -0.559982
