19
Iteration:  1637
 C         1.214628         3.009553         0.259912
 C         2.038459         1.815158         0.040840
 C         3.169924         1.426484         0.883469
 O         3.288420         0.004048         0.612410
 C         2.692184        -0.053749        -0.705476
 C         2.571221         1.295115        -1.374230
 O         1.219878         1.007605        -1.932172
 C         1.275299         0.464771        -0.381948
 C         0.227750        -0.378317         0.253157
 H         0.950647         3.366567         1.223118
 H         1.740167         3.859991        -0.127052
 H         0.161680         2.748129        -0.294829
 H         4.068994         1.997584         0.718832
 H         2.897522         1.530620         1.985396
 H         2.897818        -0.974172        -1.389928
 H         3.203879         1.987969        -2.035664
 H         0.501879        -0.564906         1.308384
 H        -0.660884         0.254182         0.297629
 H        -0.091903        -1.161488        -0.457286
