19
Iteration:  4222
 C         1.143482         2.991835         0.323604
 C         1.942322         1.701973         0.048045
 C         3.149259         1.380177         1.007270
 O         3.441556        -0.026216         0.532502
 C         2.842035        -0.044882        -0.713499
 C         2.548360         1.384798        -1.390421
 O         1.229696         0.957936        -1.869131
 C         1.226394         0.443146        -0.509774
 C         0.112047        -0.189028         0.194992
 H         0.727830         2.995577         1.412153
 H         1.733850         3.918656         0.312607
 H         0.419113         3.127621        -0.468165
 H         4.050449         1.912686         0.638801
 H         3.040806         1.389758         2.125828
 H         3.045141        -0.967721        -1.343608
 H         3.327380         2.002152        -2.008110
 H         0.422563        -0.615673         1.093268
 H        -0.669290         0.510300         0.374782
 H        -0.326812        -1.020665        -0.456418
