19
Iteration:   360
 C         1.297201         3.062952         0.324379
 C         1.998612         1.750587         0.112750
 C         3.187438         1.384257         0.993912
 O         3.545556         0.132006         0.437765
 C         2.667229        -0.096650        -0.649465
 C         2.522391         1.281003        -1.361730
 O         1.150730         1.038358        -1.863877
 C         1.200547         0.408205        -0.451119
 C         0.050669        -0.383559         0.086755
 H         0.599802         3.055434         1.227248
 H         2.157884         3.794599         0.566768
 H         0.710506         3.394650        -0.531834
 H         4.045962         2.007017         0.843988
 H         2.820823         1.450936         2.107932
 H         2.934534        -1.006298        -1.238441
 H         3.371086         1.668093        -1.866546
 H         0.130378        -0.451135         1.315364
 H        -0.976286         0.095534        -0.127664
 H         0.053383        -1.431440        -0.330482
