19
Iteration:  1304
 C         1.347898         3.158299         0.169121
 C         1.970256         1.735898         0.018223
 C         2.938751         1.210033         1.103729
 O         3.627047         0.155098         0.414931
 C         2.855232         0.002410        -0.722533
 C         2.474734         1.361244        -1.411847
 O         1.088815         0.816990        -1.814817
 C         1.283172         0.381378        -0.339547
 C         0.112501        -0.242168         0.205339
 H         1.060682         3.218458         1.255895
 H         2.038667         3.953730        -0.213170
 H         0.544612         3.367734        -0.427742
 H         3.515832         1.995924         1.478154
 H         2.360261         0.739684         2.036653
 H         3.120103        -0.956393        -1.361977
 H         3.032406         1.927327        -2.107712
 H         0.184086        -0.526128         1.336431
 H        -0.619076         0.589807         0.360899
 H        -0.396816        -0.972225        -0.414173
