19
Iteration:  4744charge 0 multiplicity 1
 C         1.231551         3.010776         0.296248
 C         1.910389         1.785632         0.002150
 C         3.065528         1.322209         0.964844
 O         3.518195         0.027197         0.509221
 C         2.713747        -0.013174        -0.708736
 C         2.587506         1.342838        -1.293603
 O         1.246873         0.967341        -1.849720
 C         1.248756         0.439788        -0.467377
 C         0.095078        -0.272663         0.132925
 H         0.690095         2.936593         1.226317
 H         2.076587         3.770776         0.271228
 H         0.519855         3.206171        -0.417112
 H         3.949354         1.993090         0.974980
 H         2.732204         1.359643         2.012378
 H         3.018585        -0.955826        -1.280956
 H         3.304138         1.934871        -1.839143
 H         0.546769        -0.633415         1.046710
 H        -0.714459         0.380228         0.478049
 H        -0.514485        -1.109606        -0.327519
