19
Iteration:  2156charge 0 multiplicity 1
 C         1.324293         3.067112         0.175705
 C         1.997716         1.768324         0.038039
 C         3.027763         1.452688         1.044868
 O         3.590177         0.082191         0.457968
 C         2.795265        -0.079178        -0.785134
 C         2.458105         1.317996        -1.348226
 O         1.134096         0.886717        -1.758949
 C         1.273209         0.414846        -0.365636
 C         0.059766        -0.289959         0.129988
 H         0.863602         3.177304         1.156326
 H         2.148624         3.874435         0.293921
 H         0.646380         3.201769        -0.571706
 H         3.864290         2.076773         1.302953
 H         2.475347         1.163754         2.032904
 H         3.107295        -0.950520        -1.224657
 H         3.045191         1.949078        -1.981151
 H         0.196837        -0.677348         1.140581
 H        -0.922463         0.288923         0.317730
 H        -0.164625        -1.248848        -0.510191
