19
Iteration:  2607
 C         1.232706         2.968376         0.298009
 C         2.047279         1.764938         0.066799
 C         3.194191         1.396094         0.871875
 O         3.435109         0.037782         0.520849
 C         2.669945        -0.017013        -0.617084
 C         2.519306         1.370423        -1.407149
 O         1.189762         0.930523        -1.846863
 C         1.254543         0.450995        -0.397207
 C         0.125035        -0.259236         0.155255
 H         0.526954         2.834311         1.211592
 H         1.765105         3.951256         0.275666
 H         0.669068         3.049972        -0.567436
 H         4.112093         1.951841         0.742735
 H         2.781464         1.427087         1.939714
 H         2.973760        -0.907829        -1.228039
 H         3.218700         1.645151        -2.146285
 H         0.474502        -0.859657         1.076164
 H        -0.619498         0.475760         0.513034
 H        -0.337520        -0.974052        -0.427036
