19
Iteration:  4895charge 0 multiplicity 1
 C         1.264483         3.049608         0.297757
 C         1.972458         1.770501         0.019433
 C         3.080178         1.329392         0.976262
 O         3.482002         0.009901         0.524774
 C         2.677054        -0.066537        -0.620098
 C         2.534403         1.406541        -1.278340
 O         1.205034         0.982908        -1.874273
 C         1.250818         0.474876        -0.549025
 C         0.139304        -0.330583         0.147284
 H         1.060310         3.119249         1.365617
 H         2.142749         3.848811         0.169327
 H         0.456432         3.247847        -0.404619
 H         3.802566         2.039022         0.665825
 H         2.861443         1.333343         2.082883
 H         2.950839        -0.749281        -1.464959
 H         3.138547         1.788118        -1.990302
 H         0.451554        -0.621237         1.094735
 H        -0.857476         0.091367         0.319600
 H         0.052150        -1.406431        -0.346574
