19
Iteration:  1308
 C         1.345495         3.130361         0.159621
 C         1.963241         1.759830         0.016261
 C         2.929169         1.215521         1.092796
 O         3.640071         0.128916         0.435798
 C         2.817829        -0.008330        -0.734527
 C         2.492328         1.384260        -1.393039
 O         1.080362         0.803614        -1.814204
 C         1.320324         0.420277        -0.379482
 C         0.107566        -0.241887         0.241998
 H         1.034032         3.322775         1.180400
 H         2.092551         3.863276        -0.032942
 H         0.370654         3.224801        -0.440291
 H         3.628501         2.008454         1.576398
 H         2.339601         0.795437         1.844547
 H         3.055339        -0.884738        -1.276999
 H         3.026811         1.959011        -2.164783
 H         0.288649        -0.608619         1.202471
 H        -0.591977         0.605032         0.336465
 H        -0.397397        -0.950408        -0.398288
