19
Iteration:   736charge 0 multiplicity 1
 C         1.329349         3.068895         0.121778
 C         1.959157         1.660791         0.104962
 C         2.976124         1.128429         1.111642
 O         3.713838         0.171135         0.278099
 C         2.720554        -0.001016        -0.759207
 C         2.571726         1.390021        -1.292979
 O         1.143428         0.985363        -1.776489
 C         1.188671         0.452681        -0.375860
 C         0.004413        -0.263383         0.269490
 H         0.625297         3.351264         0.908070
 H         2.179478         3.789580         0.130169
 H         0.775795         3.109209        -0.908951
 H         3.756700         1.753978         1.416872
 H         2.440750         0.707660         2.007132
 H         2.987698        -0.840866        -1.313808
 H         3.154215         2.088436        -1.933527
 H         0.354336        -0.740082         1.165964
 H        -0.811543         0.406089         0.578325
 H        -0.095446        -1.180771        -0.418293
