19
Iteration:   639charge 0 multiplicity 1
 C         1.274534         2.981313         0.394580
 C         2.033209         1.787448        -0.015323
 C         3.175171         1.418888         0.871208
 O         3.463543         0.002772         0.527831
 C         2.720620        -0.081668        -0.678195
 C         2.486955         1.418855        -1.355885
 O         1.153223         0.920475        -1.784227
 C         1.320783         0.383775        -0.434897
 C         0.036234        -0.221120         0.108578
 H         0.840824         2.770509         1.437186
 H         1.961369         3.840430         0.518005
 H         0.406957         3.258649        -0.321263
 H         4.008758         2.021136         0.492572
 H         3.102589         1.419643         2.058998
 H         3.022820        -0.804199        -1.376748
 H         3.078615         1.926107        -2.123750
 H         0.216301        -0.720800         1.067253
 H        -0.772001         0.545487         0.118951
 H        -0.226588        -1.101794        -0.627705
