19
Iteration:   508charge 0 multiplicity 1
 C         1.254469         3.028127         0.406198
 C         1.973049         1.758720         0.088661
 C         3.224130         1.389802         0.941968
 O         3.489197         0.112641         0.483530
 C         2.667143        -0.102659        -0.684060
 C         2.606254         1.241995        -1.389561
 O         1.164798         1.036395        -1.847558
 C         1.190701         0.470387        -0.475600
 C         0.051705        -0.325056         0.107512
 H         0.776114         2.734396         1.334471
 H         1.800025         3.895248         0.587778
 H         0.427249         3.130719        -0.359834
 H         4.111618         2.036906         0.607257
 H         3.176284         1.533651         1.970950
 H         2.899422        -0.990689        -1.124164
 H         3.396337         1.544722        -2.110774
 H         0.434452        -0.857375         0.934994
 H        -0.702764         0.330652         0.583590
 H        -0.316106        -1.091962        -0.724109
