19
Iteration:  1024
 C         1.252779         3.088957         0.183565
 C         2.032041         1.719437         0.012039
 C         2.930861         1.129233         1.041188
 O         3.752784         0.139764         0.348970
 C         2.874897        -0.030122        -0.731150
 C         2.502577         1.324938        -1.386256
 O         1.088366         0.908359        -1.802324
 C         1.273259         0.450006        -0.343647
 C         0.035462        -0.134913         0.318579
 H         0.543772         2.885247         1.051282
 H         1.865693         3.940672         0.245060
 H         0.615311         3.253909        -0.645616
 H         3.578409         1.789084         1.571645
 H         2.160866         0.714181         1.799238
 H         3.132226        -0.933453        -1.383226
 H         2.867702         1.959268        -2.160453
 H         0.081046        -0.042143         1.462525
 H        -0.926026         0.402184         0.050046
 H        -0.105739        -1.128246        -0.054520
