19
Iteration:  1917
 C         1.095504         2.963078         0.309035
 C         2.034406         1.803416        -0.059114
 C         3.177493         1.378220         0.917084
 O         3.417791        -0.015570         0.582145
 C         2.794835        -0.041496        -0.661128
 C         2.511972         1.319416        -1.425661
 O         1.174549         0.889781        -1.868327
 C         1.342917         0.494354        -0.375827
 C         0.178723        -0.182694         0.193561
 H         0.349366         2.793601         1.237810
 H         1.782383         3.801868         0.546879
 H         0.498908         3.193828        -0.513313
 H         4.210405         1.950342         0.948913
 H         2.657433         1.541068         1.842513
 H         2.861215        -1.068446        -1.263654
 H         3.059800         2.033429        -2.088757
 H         0.323364        -0.341861         1.201541
 H        -0.621608         0.554716         0.097336
 H        -0.146625        -1.082725        -0.386920
