19
Iteration:  4967charge 0 multiplicity 1
 C         1.140119         3.046560         0.250268
 C         2.013512         1.698051         0.071816
 C         3.049222         1.243580         1.122012
 O         3.600604         0.179466         0.389690
 C         2.695692        -0.067583        -0.745570
 C         2.568870         1.274090        -1.424855
 O         1.251542         1.008672        -1.816666
 C         1.263527         0.414127        -0.411000
 C         0.034794        -0.186839         0.208014
 H         0.540819         2.801983         1.118438
 H         1.804616         3.801171         0.517906
 H         0.758837         3.199813        -0.788218
 H         4.001702         1.870721         1.287655
 H         2.538842         0.952237         2.057710
 H         3.027993        -0.965347        -1.327105
 H         3.378292         1.638846        -2.197197
 H         0.256821        -0.874086         1.068560
 H        -0.671059         0.571507         0.555909
 H        -0.375879        -0.882598        -0.494764
