19
Iteration:   171
 C         1.308658         3.140823         0.258512
 C         2.033482         1.790957         0.031990
 C         2.930593         1.227306         1.158930
 O         3.630884         0.224222         0.392757
 C         2.827313        -0.022095        -0.726891
 C         2.492822         1.289210        -1.418631
 O         1.097862         0.772149        -1.761734
 C         1.361345         0.396199        -0.389360
 C         0.066578        -0.217697         0.122128
 H         0.927893         3.303144         1.277491
 H         1.936652         3.946233        -0.014006
 H         0.362571         3.194193        -0.423610
 H         3.655566         1.907404         1.529921
 H         2.336805         0.697033         2.020732
 H         3.011530        -0.884033        -1.416914
 H         3.057787         1.873732        -2.182579
 H        -0.020004        -0.487449         1.228202
 H        -0.739250         0.466337        -0.238398
 H        -0.349054        -1.035651        -0.497350
