19
Iteration:  1245charge 0 multiplicity 1
 C         1.151549         3.128836         0.329199
 C         2.063734         1.790313         0.050680
 C         3.222047         1.455648         0.926198
 O         3.447090         0.018626         0.516234
 C         2.721630        -0.083063        -0.715409
 C         2.538104         1.256617        -1.474944
 O         1.152063         0.929415        -1.762399
 C         1.303512         0.465996        -0.348421
 C         0.084611        -0.337438         0.128391
 H         0.530293         3.276929         1.202375
 H         1.873715         3.982165         0.418736
 H         0.458042         3.118398        -0.636014
 H         4.093443         2.101117         0.756481
 H         3.062277         1.295038         2.022460
 H         2.831569        -0.996508        -1.102023
 H         3.174711         1.697109        -2.370951
 H         0.043487        -0.418092         1.191920
 H        -0.727953         0.271728        -0.303689
 H         0.130619        -1.440194        -0.165272
