19
Iteration:  1445charge 0 multiplicity 1
 C         1.379329         3.150557         0.180428
 C         1.947583         1.727812         0.052058
 C         2.942230         1.208391         1.121939
 O         3.667462         0.208937         0.368506
 C         2.834991        -0.042542        -0.711296
 C         2.486037         1.315400        -1.408599
 O         1.178092         0.871677        -1.780321
 C         1.220634         0.363813        -0.383241
 C         0.036595        -0.252601         0.191107
 H         1.099330         3.482410         1.305080
 H         2.122037         3.890843        -0.379664
 H         0.453115         3.161798        -0.335483
 H         3.531878         2.065726         1.444531
 H         2.374386         0.760429         2.022700
 H         3.056706        -1.038601        -1.168346
 H         2.907454         1.993130        -2.118632
 H        -0.006467        -0.181463         1.339326
 H        -0.874790         0.307878        -0.022886
 H        -0.271146        -1.203171        -0.191300
