19
Iteration:  1886charge 0 multiplicity 1
 C         1.214392         3.002310         0.244954
 C         2.008883         1.753063         0.071790
 C         3.118488         1.371959         0.992499
 O         3.632334         0.170648         0.411479
 C         2.754950        -0.084608        -0.645330
 C         2.557797         1.251589        -1.344205
 O         1.207676         0.934125        -1.823255
 C         1.152528         0.410709        -0.462926
 C        -0.002168        -0.250100         0.190033
 H         0.257722         2.968981         0.866105
 H         1.836808         3.800540         0.503819
 H         0.891821         3.287812        -0.745455
 H         3.986221         2.093619         1.160137
 H         2.676613         1.169341         1.950791
 H         2.988372        -1.083298        -1.155985
 H         3.215126         1.844340        -1.920538
 H         0.392737        -0.273460         1.235431
 H        -0.865541         0.456860         0.153545
 H        -0.392593        -1.219674        -0.205820
