19
Iteration:   765charge 0 multiplicity 1
 C         1.297697         3.106443         0.338322
 C         2.044530         1.775277         0.048131
 C         3.102666         1.286024         1.014444
 O         3.600513         0.068564         0.429449
 C         2.678303        -0.069846        -0.684391
 C         2.495239         1.325889        -1.423076
 O         1.085801         0.971922        -1.812837
 C         1.269982         0.418415        -0.378201
 C         0.095173        -0.299009         0.122295
 H         0.715493         3.174052         1.224544
 H         2.004284         3.966728         0.306582
 H         0.590963         3.285461        -0.522207
 H         4.047869         1.947279         1.227171
 H         2.576905         1.169906         1.958528
 H         2.902708        -0.997599        -1.170417
 H         3.092087         1.931761        -2.192638
 H         0.127186        -0.388929         1.193289
 H        -0.873094         0.224791        -0.084434
 H         0.112894        -1.299791        -0.438271
