19
Iteration:  2028
 C         1.283217         3.110498         0.219997
 C         1.965816         1.746041         0.044691
 C         3.119060         1.361784         1.050024
 O         3.570905         0.140230         0.468826
 C         2.691452        -0.058649        -0.663684
 C         2.542872         1.290167        -1.340669
 O         1.118680         0.926485        -1.843686
 C         1.250113         0.452783        -0.438636
 C         0.094209        -0.362891         0.167893
 H         0.487312         3.212292         1.025104
 H         2.062539         3.767372         0.224891
 H         0.774372         3.432797        -0.677698
 H         3.922169         2.183208         1.024823
 H         2.785685         1.192689         2.040035
 H         3.037206        -0.873859        -1.205138
 H         3.287446         1.550115        -2.008456
 H         0.381196        -0.838709         1.055461
 H        -0.821440         0.117416         0.363946
 H        -0.231963        -1.104771        -0.501104
