19
Iteration:   960
 C         1.197183         3.066327         0.349254
 C         2.057170         1.855352         0.056164
 C         3.286904         1.434840         0.867198
 O         3.424454        -0.002705         0.545744
 C         2.698267        -0.091758        -0.699968
 C         2.559197         1.345763        -1.365623
 O         1.183151         0.952115        -1.896434
 C         1.221175         0.451588        -0.420613
 C         0.049449        -0.377855         0.193954
 H         0.886045         2.877729         1.364954
 H         1.768446         4.007749         0.391272
 H         0.258190         3.190672        -0.262936
 H         4.084897         1.980904         0.450175
 H         3.311920         1.471079         2.021037
 H         2.903655        -0.934454        -1.205107
 H         3.104251         1.826225        -2.228578
 H         0.440970        -0.621701         1.247349
 H        -0.914082         0.227541         0.311755
 H        -0.319458        -1.247321        -0.425693
