19
Iteration:   664
 C         1.158309         3.009657         0.482877
 C         2.018805         1.796045         0.048972
 C         3.274218         1.443126         0.916716
 O         3.408148         0.034542         0.526904
 C         2.618163        -0.129395        -0.661857
 C         2.591049         1.277725        -1.460378
 O         1.227334         0.996103        -1.978833
 C         1.235956         0.547814        -0.479548
 C         0.085949        -0.310591         0.201147
 H         0.762868         2.879161         1.565878
 H         1.795446         3.845360         0.503860
 H         0.383471         3.193373        -0.121045
 H         4.131822         2.149966         0.547658
 H         3.210870         1.345346         1.987660
 H         2.771462        -1.248838        -1.147206
 H         3.325777         1.636108        -2.146236
 H         0.668297        -1.027500         0.964969
 H        -0.641319         0.292847         0.786112
 H        -0.290900        -0.982557        -0.475510
