19
Iteration:  1679charge 0 multiplicity 1
 C         1.253489         3.082679         0.276247
 C         2.011707         1.754014        -0.001271
 C         3.048339         1.352929         1.021289
 O         3.520238         0.093662         0.490889
 C         2.733646        -0.016329        -0.722257
 C         2.525618         1.295189        -1.404684
 O         1.153602         0.855891        -1.868783
 C         1.337930         0.442561        -0.371047
 C         0.108614        -0.232967         0.194391
 H         0.665452         3.062367         1.261011
 H         1.902894         3.947476         0.282978
 H         0.397035         3.201148        -0.501136
 H         3.914933         1.989903         1.124555
 H         2.655166         1.172235         2.112646
 H         2.954396        -1.054395        -1.194064
 H         3.245887         1.722278        -2.013819
 H         0.092494        -0.141320         1.253493
 H        -0.825305         0.232664        -0.154605
 H         0.066347        -1.282575        -0.221603
