19
Iteration:  1804charge 0 multiplicity 1
 C         1.210222         3.061635         0.233808
 C         1.974954         1.766833         0.014055
 C         3.133032         1.481449         1.002018
 O         3.338417         0.057259         0.520227
 C         2.649102        -0.081995        -0.727433
 C         2.573639         1.266524        -1.345401
 O         1.269059         0.980877        -1.908878
 C         1.239450         0.425569        -0.440096
 C         0.197060        -0.352552         0.246026
 H         1.237235         3.211792         1.288822
 H         1.871820         4.000782        -0.056993
 H         0.105666         3.177943        -0.127362
 H         4.097692         1.975712         0.793884
 H         2.993667         1.417424         2.150093
 H         2.852691        -0.964225        -1.200513
 H         3.340157         1.803993        -2.043120
 H         0.797156        -0.768062         1.097433
 H        -0.664713         0.102111         0.693450
 H        -0.009565        -1.195714        -0.360012
