19
Iteration:   162
 C         1.256462         3.061612         0.264926
 C         2.008625         1.781637         0.044843
 C         2.961232         1.302915         1.098817
 O         3.650967         0.129740         0.434082
 C         2.809696        -0.059925        -0.742695
 C         2.468619         1.338453        -1.394863
 O         1.180494         0.824311        -1.792265
 C         1.280870         0.385324        -0.432634
 C         0.071996        -0.170410         0.109702
 H         1.109104         3.281687         1.358250
 H         1.817009         3.884314        -0.185525
 H         0.271896         3.028385        -0.300057
 H         3.650181         2.048985         1.626645
 H         2.280276         0.961262         1.998435
 H         3.107569        -0.807323        -1.400806
 H         2.993826         1.768508        -2.173454
 H         0.232217        -0.320568         1.323523
 H        -0.802803         0.571960         0.099731
 H        -0.163429        -1.180385        -0.179047
