19
Iteration:  1325
 C         1.232412         3.041699         0.193289
 C         2.064440         1.793607        -0.008453
 C         2.989049         1.285963         1.072884
 O         3.553518         0.082387         0.435157
 C         2.715797        -0.031311        -0.678687
 C         2.525456         1.348892        -1.404411
 O         1.191769         0.885777        -1.822946
 C         1.225107         0.422142        -0.458195
 C         0.177123        -0.191365         0.294382
 H         0.711951         3.100519         1.194700
 H         1.828899         3.962440        -0.126545
 H         0.580207         3.103385        -0.634247
 H         3.787332         1.882843         1.375825
 H         2.375102         1.059398         2.053840
 H         2.855461        -0.932916        -1.398731
 H         3.099330         1.908417        -2.133655
 H         0.663720        -0.786639         1.177078
 H        -0.662343         0.331627         0.770092
 H        -0.232512        -0.974014        -0.387974
