19
Iteration:  2699
 C         1.267467         3.128179         0.222116
 C         1.920446         1.763077        -0.008713
 C         2.975852         1.280663         1.072692
 O         3.612700         0.052078         0.351349
 C         2.671417        -0.062385        -0.701221
 C         2.515365         1.347311        -1.339778
 O         1.175217         0.922190        -1.825931
 C         1.306529         0.440328        -0.359517
 C         0.166141        -0.230516         0.242182
 H         0.830406         3.108436         1.178783
 H         1.983471         3.883811         0.008293
 H         0.468143         3.321946        -0.668497
 H         3.832991         1.972359         1.310945
 H         2.596645         0.909590         2.053690
 H         2.959183        -1.028214        -1.228875
 H         3.367048         1.858678        -1.935606
 H         0.254559        -0.455828         1.243411
 H        -0.724133         0.322160         0.051779
 H         0.027239        -1.299370        -0.139486
