19
Iteration:  2772charge 0 multiplicity 1
 C         1.237700         3.066141         0.226790
 C         2.008424         1.782236         0.075915
 C         3.168692         1.418272         1.005535
 O         3.551953         0.019269         0.452303
 C         2.702384         0.024407        -0.630518
 C         2.526945         1.303409        -1.329532
 O         1.153218         0.892904        -1.931672
 C         1.252104         0.440397        -0.390161
 C         0.049890        -0.286907         0.214713
 H         0.607995         2.899774         1.177488
 H         1.931455         3.905962         0.328502
 H         0.610839         3.273761        -0.557907
 H         4.018024         2.034755         0.894966
 H         2.971470         1.378155         2.090293
 H         2.899771        -0.861228        -1.393168
 H         3.206830         1.737344        -2.042257
 H         0.311091        -1.010856         1.016217
 H        -0.820024         0.295903         0.449923
 H        -0.293199        -1.043100        -0.549626
