19
Iteration:  4972
 C         1.183467         3.050718         0.263491
 C         2.006603         1.692265         0.112439
 C         3.067676         1.275097         1.106572
 O         3.577584         0.173196         0.396572
 C         2.714403        -0.058062        -0.798224
 C         2.597959         1.277116        -1.412771
 O         1.227902         0.954878        -1.819299
 C         1.318772         0.413031        -0.421514
 C         0.004903        -0.192612         0.208376
 H         0.391556         2.818931         1.022607
 H         1.858399         3.975341         0.501515
 H         0.762333         3.213721        -0.716956
 H         3.828287         1.965016         1.423289
 H         2.540347         1.012958         2.047868
 H         2.857399        -0.894567        -1.490552
 H         3.266716         1.779383        -2.022336
 H         0.242028        -0.820162         1.061326
 H        -0.735357         0.546416         0.552851
 H        -0.535897        -0.953202        -0.501430
