19
Iteration:  1225
 C         1.186938         2.985537         0.208718
 C         2.058629         1.816241        -0.014604
 C         3.222469         1.381305         0.880969
 O         3.385155        -0.007675         0.586968
 C         2.724622        -0.083094        -0.667643
 C         2.514460         1.382559        -1.356657
 O         1.122657         0.965566        -1.817511
 C         1.276623         0.457312        -0.447168
 C         0.186793        -0.248857         0.216628
 H         0.628952         2.623280         1.070895
 H         1.686753         3.879430         0.701021
 H         0.457226         3.201721        -0.594899
 H         4.157934         1.835821         0.641874
 H         3.062079         1.578905         2.032544
 H         3.035958        -0.920644        -1.287744
 H         3.125988         1.842512        -2.207656
 H         0.352179        -0.372871         1.331079
 H        -0.779361         0.271991         0.025557
 H         0.175392        -1.376735        -0.047539
