19
Iteration:  2687
 C         1.266280         3.141721         0.199377
 C         1.987842         1.754587         0.087364
 C         2.966379         1.264263         1.045639
 O         3.679488         0.067011         0.408448
 C         2.798190        -0.072363        -0.774292
 C         2.545186         1.305051        -1.347345
 O         1.144916         0.908248        -1.862419
 C         1.254364         0.433464        -0.381744
 C         0.064478        -0.232884         0.292190
 H         0.761019         3.326105         1.149533
 H         1.938672         3.908442         0.215755
 H         0.394554         3.261816        -0.563692
 H         3.655259         2.059326         1.343719
 H         2.392757         0.910232         1.943392
 H         2.824297        -0.963705        -1.551080
 H         3.028605         2.047058        -2.066612
 H         0.213963        -0.310899         1.310924
 H        -0.758328         0.400691         0.125758
 H        -0.143439        -1.193529        -0.282102
