19
Iteration:  2072charge 0 multiplicity 1
 C         1.174379         2.986784         0.304521
 C         2.004604         1.815660        -0.005935
 C         3.085129         1.322765         0.950946
 O         3.427178         0.017528         0.602660
 C         2.779618        -0.014133        -0.696797
 C         2.556177         1.299312        -1.455172
 O         1.129578         0.906535        -1.853833
 C         1.334870         0.461314        -0.468035
 C         0.201328        -0.181490         0.234455
 H         0.632376         2.581306         1.220438
 H         1.669341         3.877748         0.411532
 H         0.429807         3.112269        -0.480592
 H         3.966813         1.947833         0.706224
 H         2.860469         1.447691         1.960817
 H         3.128437        -0.855784        -1.205226
 H         3.070090         1.886681        -2.138244
 H         0.420221        -0.414454         1.209467
 H        -0.547840         0.547865         0.087958
 H        -0.093260        -1.021361        -0.300979
