19
Iteration:  4996
 C         1.254450         3.088285         0.259724
 C         1.933632         1.693044         0.011993
 C         3.063060         1.248909         1.027796
 O         3.612326         0.024777         0.473242
 C         2.805291        -0.013544        -0.652493
 C         2.435366         1.424330        -1.353656
 O         1.171751         0.894955        -1.810485
 C         1.278889         0.415333        -0.467667
 C         0.078180        -0.178478         0.137029
 H         0.551761         2.845670         1.125722
 H         2.125114         3.746446         0.533297
 H         0.743585         3.492860        -0.628840
 H         3.944127         1.861351         1.120538
 H         2.630928         1.272568         2.098283
 H         3.106803        -0.718415        -1.412211
 H         3.046555         2.077653        -2.101361
 H         0.294904        -0.824084         1.129819
 H        -0.804009         0.489688         0.338121
 H        -0.288920        -0.918237        -0.542379
