19
Iteration:  4176charge 0 multiplicity 1
 C         1.268501         3.041873         0.183461
 C         1.984351         1.805950         0.112093
 C         2.979031         1.204581         1.113540
 O         3.604958         0.110362         0.446022
 C         2.722530        -0.053605        -0.723808
 C         2.637796         1.285968        -1.454576
 O         1.098984         1.025496        -1.756594
 C         1.248923         0.479984        -0.385059
 C         0.133677        -0.307359         0.121282
 H         0.992013         3.348471         1.248493
 H         1.926220         3.983390        -0.057328
 H         0.504077         3.094208        -0.622734
 H         3.685796         2.013620         1.356622
 H         2.394717         0.854215         1.976696
 H         2.901413        -0.945902        -1.238786
 H         3.127936         1.814589        -2.356418
 H         0.483618        -0.686292         1.043834
 H        -0.761677         0.276474         0.341449
 H        -0.131970        -1.230584        -0.504320
