19
Iteration:   799
 C         1.240323         3.015274         0.532424
 C         2.036740         1.787247        -0.022138
 C         3.265086         1.403714         0.826584
 O         3.313464         0.023155         0.563580
 C         2.704903        -0.048292        -0.728769
 C         2.512270         1.376867        -1.400464
 O         1.207899         0.931778        -1.875524
 C         1.279910         0.392029        -0.462859
 C         0.099648        -0.291527         0.193769
 H         0.852670         2.918669         1.466296
 H         1.871770         3.946527         0.514744
 H         0.378087         3.224337        -0.234500
 H         4.239426         1.938608         0.365987
 H         3.093012         1.721915         1.808720
 H         2.984328        -0.879756        -1.259588
 H         3.331830         1.951391        -2.028693
 H         0.169126        -0.325620         1.214238
 H        -0.828539         0.212446        -0.213441
 H        -0.026531        -1.434524        -0.086252
