19
Iteration:  2788charge 0 multiplicity 1
 C         1.223148         3.080272         0.263090
 C         1.994945         1.776798        -0.046955
 C         3.115032         1.292555         0.995408
 O         3.643798         0.125300         0.480590
 C         2.735831        -0.119162        -0.678304
 C         2.478695         1.344895        -1.430982
 O         1.210609         0.935430        -1.807227
 C         1.241635         0.398740        -0.363603
 C         0.003493        -0.288734         0.205839
 H         0.631777         2.961472         1.117685
 H         1.885241         3.998403         0.245937
 H         0.571362         3.424617        -0.668217
 H         3.902380         2.101081         1.214483
 H         2.602567         1.107861         1.960999
 H         2.876271        -1.051636        -1.168243
 H         3.173353         1.954935        -2.082735
 H         0.335743        -0.845652         1.094641
 H        -0.574048         0.584536         0.584462
 H        -0.501817        -0.854206        -0.589123
