19
Iteration:  4099
 C         1.178220         2.970649         0.371627
 C         2.071129         1.793578        -0.016998
 C         3.185787         1.369166         0.938152
 O         3.449931         0.030805         0.552962
 C         2.704560        -0.049667        -0.677332
 C         2.578923         1.323108        -1.424026
 O         1.185773         0.992242        -1.824217
 C         1.241090         0.449642        -0.474882
 C         0.093236        -0.273906         0.145340
 H         0.499940         2.745645         1.213495
 H         1.814182         3.865665         0.749591
 H         0.591937         3.214839        -0.557915
 H         3.974150         2.189293         0.785743
 H         2.885178         1.433174         2.035238
 H         2.812253        -0.986171        -1.130027
 H         3.296634         1.824727        -2.135165
 H         0.348619        -0.645666         1.135375
 H        -0.813580         0.352200         0.177120
 H        -0.135085        -1.172448        -0.458261
