19
Iteration:  3857charge 0 multiplicity 1
 C         1.221525         3.014864         0.313311
 C         2.028078         1.730480         0.065059
 C         3.042624         1.318368         1.042766
 O         3.561229        -0.003567         0.468967
 C         2.813779        -0.041212        -0.730516
 C         2.535553         1.396810        -1.383642
 O         1.216232         0.900738        -1.897077
 C         1.230442         0.485185        -0.437148
 C         0.024427        -0.196516         0.203629
 H         0.687452         3.119262         1.255796
 H         1.880490         3.898312         0.174213
 H         0.389791         3.192309        -0.484342
 H         3.989191         1.974130         1.019572
 H         2.698875         1.168635         2.080986
 H         3.077666        -0.925004        -1.435290
 H         2.941626         2.114620        -2.084403
 H         0.316229        -0.655527         1.274940
 H        -0.888862         0.484019         0.365143
 H        -0.203313        -1.045795        -0.382781
