19
Iteration:  1710charge 0 multiplicity 1
 C         1.311744         3.075651         0.191307
 C         1.946723         1.713166         0.056390
 C         2.992217         1.244677         1.075785
 O         3.752141         0.219023         0.411595
 C         2.933060        -0.027461        -0.731120
 C         2.488576         1.294357        -1.376183
 O         1.109693         0.817097        -1.802339
 C         1.227372         0.383283        -0.371647
 C        -0.082079        -0.138602         0.180395
 H         0.344264         3.197289         0.883306
 H         1.933533         3.876784         0.543342
 H         0.976350         3.271393        -0.823975
 H         3.683284         2.069828         1.436226
 H         2.398958         0.788819         1.958003
 H         3.129439        -1.082355        -1.287261
 H         3.135490         1.878131        -1.968676
 H         0.103567        -0.288536         1.247474
 H        -0.953724         0.570027         0.008844
 H        -0.262131        -1.220791        -0.228255
