19
Iteration:  1479
 C         1.240039         3.050290         0.184424
 C         2.043260         1.786070         0.059262
 C         3.103224         1.347329         1.062738
 O         3.421573         0.035127         0.494835
 C         2.698956        -0.044831        -0.724411
 C         2.507070         1.344661        -1.433068
 O         1.196981         0.935739        -1.836408
 C         1.269348         0.469221        -0.430723
 C         0.182839        -0.303360         0.231871
 H         1.001781         3.381648         1.315377
 H         1.680235         4.030958        -0.248391
 H         0.337055         2.827460        -0.327916
 H         3.976087         1.956031         1.074709
 H         2.802740         1.187728         2.176276
 H         2.947290        -0.952428        -1.219688
 H         3.115805         1.805508        -2.117188
 H         0.365212        -0.317235         1.331366
 H        -0.705518         0.279356        -0.072349
 H         0.123589        -1.345595        -0.031944
