19
Iteration:  2543charge 0 multiplicity 1
 C         1.329402         3.130332         0.158033
 C         1.949501         1.792318         0.040318
 C         2.995854         1.235258         1.077857
 O         3.631219         0.105134         0.391570
 C         2.761896        -0.023509        -0.677683
 C         2.533098         1.287541        -1.361929
 O         1.076194         0.946353        -1.827651
 C         1.268189         0.449676        -0.394018
 C         0.114333        -0.300797         0.249478
 H         0.784168         3.359078         1.134992
 H         2.195419         3.781052        -0.002818
 H         0.550123         3.303822        -0.612213
 H         3.617167         1.925316         1.563727
 H         2.467573         0.751011         1.879705
 H         2.905380        -0.897450        -1.430116
 H         3.235588         1.829025        -1.968704
 H         0.390582        -0.709983         1.247717
 H        -0.740899         0.316624         0.209007
 H        -0.069545        -1.148648        -0.332529
