19
Iteration:  4464
 C         1.234668         3.019503         0.256865
 C         1.995869         1.709023         0.072073
 C         3.054051         1.241888         1.085850
 O         3.564624         0.037031         0.518717
 C         2.759016        -0.049554        -0.746017
 C         2.540712         1.432166        -1.319462
 O         1.166111         0.959951        -1.870929
 C         1.291159         0.425278        -0.508160
 C         0.078363        -0.179744         0.126738
 H         0.639234         3.024713         1.241448
 H         1.945169         3.785210         0.225873
 H         0.486032         3.034909        -0.602680
 H         3.780910         2.001231         1.156672
 H         2.632206         1.278302         2.081396
 H         3.096455        -0.855952        -1.487138
 H         3.025116         2.098971        -2.090696
 H         0.373405        -0.478360         1.207060
 H        -0.896753         0.273409         0.380784
 H        -0.135033        -1.117977        -0.275611
