19
Iteration:  3165
 C         1.190332         2.967514         0.214992
 C         1.977416         1.695224        -0.017881
 C         3.082662         1.353445         0.987589
 O         3.440025         0.050712         0.506917
 C         2.705867        -0.144444        -0.661506
 C         2.646209         1.386200        -1.444576
 O         1.199514         1.029565        -1.809546
 C         1.301320         0.453605        -0.482327
 C         0.111824        -0.199824         0.297435
 H         0.676256         2.692005         1.220061
 H         1.788451         3.976425         0.375543
 H         0.458093         3.122929        -0.523220
 H         3.932547         2.109102         1.012679
 H         2.770947         1.209714         2.004275
 H         3.043333        -1.080196        -1.270684
 H         3.389011         1.950735        -2.000943
 H         0.535681        -0.700488         1.150309
 H        -0.746660         0.395003         0.591014
 H        -0.189640        -0.918137        -0.625300
