19
Iteration:   354charge 0 multiplicity 1
 C         1.307838         3.063047         0.334845
 C         2.015409         1.748148         0.079608
 C         3.102673         1.368046         1.008268
 O         3.620693         0.128970         0.394603
 C         2.711843        -0.058576        -0.652861
 C         2.521512         1.242840        -1.342562
 O         1.152540         1.008708        -1.814720
 C         1.189358         0.430741        -0.416428
 C        -0.013538        -0.349937         0.088421
 H         0.678915         3.088573         1.187876
 H         2.069125         3.833401         0.452765
 H         0.762087         3.376013        -0.567140
 H         4.026053         2.086078         0.936469
 H         2.767620         1.345218         2.006216
 H         2.877463        -1.063044        -1.159613
 H         3.315753         1.854955        -1.914583
 H         0.159152        -0.482652         1.067322
 H        -0.959694        -0.018497        -0.259464
 H        -0.009359        -1.370832        -0.400694
