19
Iteration:  2836charge 0 multiplicity 1
 C         1.217356         3.049065         0.204144
 C         1.985167         1.824876         0.023714
 C         2.993836         1.320024         1.037411
 O         3.595923         0.004698         0.389787
 C         2.802306        -0.102207        -0.682748
 C         2.532764         1.393063        -1.380036
 O         1.222849         0.919415        -1.839251
 C         1.235004         0.403462        -0.433680
 C         0.072372        -0.206562         0.299728
 H         0.625030         3.040560         1.233423
 H         1.760039         4.047695        -0.030968
 H         0.545678         3.050404        -0.583216
 H         3.853666         1.985817         1.298008
 H         2.497195         1.045512         2.005197
 H         3.175597        -1.030537        -1.136703
 H         2.913792         2.009958        -2.149859
 H         0.522083        -0.575386         1.271574
 H        -0.600262         0.622903         0.591183
 H        -0.372765        -0.986764        -0.317132
