19
Iteration:  2048
 C         1.226236         3.075807         0.282020
 C         2.002868         1.819970         0.036479
 C         3.149146         1.446646         0.957142
 O         3.455642         0.027055         0.499868
 C         2.668390        -0.050699        -0.660890
 C         2.528800         1.299119        -1.427089
 O         1.258968         0.915329        -1.860424
 C         1.278243         0.429310        -0.437241
 C         0.098155        -0.320952         0.214510
 H         0.591865         2.694556         1.139953
 H         1.786481         4.011049         0.484074
 H         0.589739         3.258728        -0.502650
 H         3.990953         2.089547         0.881780
 H         2.834591         1.416388         1.999902
 H         2.713901        -1.052118        -1.052921
 H         3.108496         1.974566        -2.029125
 H         0.563026        -0.662243         1.056806
 H        -0.850199         0.225097         0.385936
 H        -0.102334        -1.243709        -0.359008
