19
Iteration:  3696charge 0 multiplicity 1
 C         1.145811         2.994432         0.327456
 C         1.994678         1.751532         0.098441
 C         3.203108         1.306089         0.940681
 O         3.503151        -0.010625         0.559691
 C         2.693405        -0.041659        -0.723658
 C         2.553651         1.402069        -1.332844
 O         1.221358         0.937669        -1.865883
 C         1.259102         0.478064        -0.540911
 C         0.073963        -0.194451         0.152922
 H         0.574013         2.968393         1.336154
 H         1.760481         3.807438         0.364268
 H         0.483914         3.052457        -0.619088
 H         4.109964         2.002714         0.729478
 H         3.167482         1.399954         2.104421
 H         2.809130        -0.921559        -1.485670
 H         3.212002         1.822873        -2.123145
 H         0.442356        -0.574468         1.145926
 H        -0.764239         0.510917         0.423334
 H        -0.390622        -1.076110        -0.223301
