19
Iteration:  1543
 C         1.236022         3.074224         0.212945
 C         1.953141         1.782938        -0.001441
 C         3.076659         1.335615         1.020719
 O         3.577867         0.085517         0.456393
 C         2.818743        -0.029495        -0.707102
 C         2.489782         1.331190        -1.410150
 O         1.188224         0.787491        -1.798118
 C         1.300605         0.405755        -0.367804
 C         0.055033        -0.190826         0.201775
 H         0.304980         2.928946         0.843830
 H         1.882641         3.700891         0.909405
 H         0.909178         3.487023        -0.673422
 H         3.900162         2.135418         1.119156
 H         2.625392         1.224794         2.019549
 H         3.029060        -0.833965        -1.370422
 H         3.076350         1.947361        -2.106934
 H         0.131259        -0.877428         1.097061
 H        -0.592482         0.604141         0.589061
 H        -0.596807        -0.625620        -0.530901
