19
Iteration:  3928charge 0 multiplicity 1
 C         1.229070         3.049035         0.270634
 C         2.068052         1.789395         0.031370
 C         3.081929         1.374953         1.029724
 O         3.524483         0.017181         0.424183
 C         2.693085        -0.098822        -0.737797
 C         2.552052         1.379514        -1.343876
 O         1.196468         0.942612        -1.797367
 C         1.310985         0.406321        -0.420938
 C         0.052890        -0.244239         0.161055
 H         0.451115         2.906026         1.210717
 H         1.764519         4.054363         0.349272
 H         0.532033         3.184518        -0.546300
 H         3.899127         2.022799         1.227255
 H         2.619773         1.237785         2.005565
 H         2.929827        -0.977747        -1.278332
 H         3.314165         1.979942        -1.956958
 H         0.184543        -0.702294         1.087622
 H        -0.767112         0.441037         0.276739
 H        -0.233770        -1.197988        -0.471142
