19
Iteration:   123
 C         1.033403         2.925542         0.276330
 C         2.022287         1.762814         0.044179
 C         3.171928         1.458757         0.922549
 O         3.363354        -0.029674         0.554103
 C         2.668672        -0.050497        -0.719042
 C         2.569532         1.292330        -1.363789
 O         1.330163         1.047739        -1.910861
 C         1.303351         0.420264        -0.449454
 C         0.189651        -0.209075         0.289791
 H         0.834723         3.157928         1.321641
 H         1.372439         3.892266        -0.236117
 H         0.114263         2.702692        -0.119870
 H         4.100574         1.969925         0.740789
 H         2.959509         1.442694         1.924325
 H         2.904894        -0.962409        -1.327551
 H         3.391620         1.767312        -2.040910
 H         0.652194        -0.282380         1.159073
 H        -0.768341         0.208162         0.212404
 H        -0.083763        -1.205187        -0.113933
