19
Iteration:  4900charge 0 multiplicity 1
 C         1.261321         3.060399         0.311695
 C         1.969436         1.755835         0.031361
 C         3.084015         1.307227         0.980106
 O         3.479631        -0.023926         0.562687
 C         2.678184        -0.066000        -0.707118
 C         2.515140         1.422754        -1.280554
 O         1.210698         0.980531        -1.892091
 C         1.288622         0.445243        -0.520086
 C         0.128156        -0.318961         0.159558
 H         0.886647         3.194985         1.346235
 H         1.901444         3.837431         0.021770
 H         0.477063         3.388435        -0.403793
 H         3.837545         2.146398         0.695930
 H         2.897383         1.540151         2.037223
 H         3.055268        -0.790913        -1.400191
 H         3.183908         1.979250        -2.111676
 H         0.524908        -0.683403         1.215906
 H        -0.830473         0.201648         0.298443
 H        -0.000452        -1.223191        -0.309093
