19
Iteration:  2122
 C         1.166083         3.060298         0.190463
 C         1.952613         1.753284         0.093888
 C         3.024943         1.302797         1.110846
 O         3.684537         0.111891         0.369015
 C         2.843808        -0.097280        -0.752546
 C         2.535739         1.262881        -1.396072
 O         1.190940         0.904361        -1.795168
 C         1.216427         0.491899        -0.373456
 C         0.031408        -0.165563         0.218108
 H         0.586084         3.107568         1.096583
 H         1.893041         3.933171        -0.080788
 H         0.473999         3.111227        -0.638736
 H         3.752714         2.067312         1.436210
 H         2.517108         0.798615         2.028540
 H         2.974545        -1.057315        -1.254258
 H         3.248047         1.785901        -2.104289
 H         0.479886        -0.361977         1.245470
 H        -0.961731         0.444208         0.124084
 H        -0.136029        -1.206388        -0.311814
