19
Iteration:  3261charge 0 multiplicity 1
 C         1.294370         3.121898         0.217124
 C         1.977489         1.777607         0.080276
 C         3.063112         1.308193         0.979443
 O         3.450632        -0.010112         0.503529
 C         2.729422         0.011385        -0.749522
 C         2.554684         1.344254        -1.365611
 O         1.214386         0.937579        -1.803315
 C         1.285124         0.441761        -0.368201
 C         0.090222        -0.333586         0.161883
 H         0.884409         3.153773         1.184346
 H         1.923329         4.091674         0.147506
 H         0.495529         3.158394        -0.463840
 H         3.781269         2.154428         0.877430
 H         2.873623         1.215391         2.098956
 H         3.050736        -0.949415        -1.365327
 H         3.070773         1.917823        -2.141900
 H         0.325402        -0.493097         1.242594
 H        -0.866869         0.205026         0.027527
 H        -0.031936        -1.175429        -0.453489
