19
Iteration:  2375
 C         1.298354         3.089306         0.166821
 C         2.030200         1.796366         0.027400
 C         3.007527         1.387537         1.107043
 O         3.499173         0.051279         0.447590
 C         2.789616        -0.077709        -0.700906
 C         2.506997         1.332570        -1.439920
 O         1.075469         0.958651        -1.774076
 C         1.277112         0.418082        -0.446181
 C         0.139594        -0.322880         0.229380
 H         0.873542         3.079651         1.222116
 H         2.071211         4.021561        -0.004174
 H         0.700754         3.270897        -0.691449
 H         3.982001         1.808300         1.153076
 H         2.694352         1.053796         2.130301
 H         3.061882        -0.935492        -1.155533
 H         3.220618         1.897086        -2.050550
 H         0.554729        -0.808267         1.085887
 H        -0.723926         0.376271         0.416252
 H        -0.149424        -1.219318        -0.388224
