19
Iteration:   978
 C         1.208511         3.034431         0.318889
 C         1.945397         1.737501         0.030874
 C         3.183133         1.363231         0.903392
 O         3.596906         0.033059         0.421583
 C         2.693627        -0.055453        -0.651609
 C         2.495775         1.326736        -1.350208
 O         1.214115         0.958050        -1.812123
 C         1.238709         0.448636        -0.414701
 C         0.049754        -0.234086         0.196878
 H         0.652619         2.988210         1.332669
 H         1.894008         3.827609         0.090507
 H         0.478903         3.104637        -0.420706
 H         4.017245         2.127520         0.725424
 H         3.051385         1.304903         2.000686
 H         2.878858        -1.062021        -1.329753
 H         3.269618         1.828355        -1.829458
 H         0.114944        -0.351883         1.314679
 H        -0.903317         0.251725         0.087838
 H        -0.126417        -1.148709        -0.308438
