19
Iteration:  4413
 C         1.204641         2.975861         0.290753
 C         2.009782         1.757458         0.065115
 C         3.094009         1.288074         1.069062
 O         3.625522         0.072720         0.434950
 C         2.795789        -0.008603        -0.653758
 C         2.504070         1.308831        -1.368872
 O         1.170000         0.925183        -1.830662
 C         1.283444         0.466189        -0.442352
 C         0.012195        -0.179803         0.057212
 H         0.514516         2.694378         1.044953
 H         1.818178         3.908116         0.564208
 H         0.851161         3.319047        -0.720129
 H         3.759694         2.147082         1.390006
 H         2.646007         0.873363         2.043484
 H         2.885090        -0.916576        -1.138897
 H         3.096752         1.934802        -2.038687
 H         0.234609        -0.641693         1.072581
 H        -0.808323         0.532250         0.305173
 H        -0.484630        -0.933485        -0.582266
