19
Iteration:    21charge 0 multiplicity 1
 C         1.346373         3.147767         0.189864
 C         1.983031         1.768891         0.004279
 C         2.910289         1.304770         1.143671
 O         3.679214         0.213462         0.417434
 C         2.816095        -0.008616        -0.722758
 C         2.505738         1.321303        -1.392570
 O         1.063931         0.799513        -1.770382
 C         1.313057         0.318520        -0.345136
 C         0.079114        -0.279923         0.122721
 H         0.549078         3.158417         0.965171
 H         2.095194         3.837998         0.525208
 H         0.907151         3.522834        -0.811592
 H         3.626015         2.059532         1.588003
 H         2.325727         0.919655         1.899249
 H         3.062906        -0.928270        -1.330276
 H         3.063288         1.822214        -2.133197
 H        -0.022420        -0.906695         1.084377
 H        -0.620376         0.541843         0.288141
 H        -0.235134        -0.928919        -0.609815
