19
Iteration:  3565
 C         1.174048         3.034006         0.273315
 C         2.087360         1.841270         0.004533
 C         3.145491         1.315452         1.012285
 O         3.421582         0.028739         0.476872
 C         2.666346        -0.064699        -0.756290
 C         2.601956         1.308558        -1.400633
 O         1.249523         0.955471        -1.781992
 C         1.266945         0.479333        -0.427676
 C         0.104691        -0.252688         0.202759
 H         0.886506         2.805870         1.333910
 H         1.436485         4.072658         0.266884
 H         0.234597         2.838834        -0.328818
 H         4.000010         2.047450         0.978589
 H         2.764503         1.282070         2.043073
 H         2.883094        -0.981636        -1.319653
 H         3.249872         1.805868        -2.094193
 H         0.342732        -0.795893         1.169029
 H        -0.854708         0.315022         0.300489
 H        -0.158018        -0.889851        -0.549620
