19
Iteration:  1088charge 0 multiplicity 1
 C         1.251855         3.060697         0.298811
 C         2.054444         1.831027        -0.030048
 C         3.225836         1.419478         0.907173
 O         3.372311         0.011897         0.592857
 C         2.662192        -0.034284        -0.624322
 C         2.525212         1.323337        -1.491105
 O         1.114842         0.951739        -1.736762
 C         1.278562         0.424970        -0.433268
 C         0.199082        -0.345364         0.125983
 H         0.652591         2.879349         1.314232
 H         1.691555         4.076093         0.377975
 H         0.479011         3.075281        -0.457777
 H         4.264956         1.826624         0.612778
 H         3.082399         1.662797         1.941656
 H         2.841277        -1.071377        -1.236076
 H         3.047909         1.874992        -2.195929
 H         0.524561        -0.986555         0.972124
 H        -0.616213         0.283833         0.395782
 H        -0.054567        -1.016037        -0.636247
