19
Iteration:  2114charge 0 multiplicity 1
 C         1.179099         3.047373         0.170226
 C         1.974028         1.701072         0.028752
 C         3.027193         1.265076         1.037566
 O         3.649191         0.111026         0.400299
 C         2.843379        -0.045689        -0.714913
 C         2.562728         1.291487        -1.355389
 O         1.204892         0.932140        -1.848502
 C         1.215628         0.462422        -0.357168
 C         0.037782        -0.172381         0.263028
 H         0.636801         2.910897         1.199464
 H         1.560028         4.134036         0.146419
 H         0.443416         3.010831        -0.557210
 H         3.654838         2.080978         1.222882
 H         2.634327         0.875051         1.960357
 H         2.756827        -0.915455        -1.239652
 H         3.298911         1.743423        -1.909898
 H         0.323320        -0.306464         1.249516
 H        -0.829153         0.548088         0.203380
 H        -0.132078        -1.183763        -0.156292
