19
Iteration:  2906
 C         1.272917         3.142762         0.266768
 C         1.989909         1.795158         0.063052
 C         3.142711         1.350422         1.003905
 O         3.451952         0.091388         0.447175
 C         2.720483        -0.044229        -0.660586
 C         2.562013         1.269081        -1.416485
 O         1.119390         0.896828        -1.791344
 C         1.306662         0.453797        -0.403762
 C         0.126367        -0.366124         0.161308
 H         0.650539         3.125449         1.172308
 H         1.913274         3.943625         0.322969
 H         0.634859         3.501460        -0.612836
 H         3.940744         2.035887         0.976222
 H         2.883185         1.220964         2.066519
 H         2.975971        -1.020750        -1.300845
 H         3.279707         1.798412        -2.148280
 H        -0.050290        -0.443789         1.202235
 H        -0.707498         0.289573        -0.067403
 H        -0.036289        -1.294710        -0.453336
