19
Iteration:  4814
 C         1.173712         3.068398         0.208580
 C         1.985498         1.682762         0.071325
 C         3.079585         1.267376         1.053540
 O         3.578512         0.073685         0.436076
 C         2.763199        -0.034699        -0.696277
 C         2.545203         1.329400        -1.333042
 O         1.263692         1.045390        -1.887837
 C         1.234172         0.369285        -0.434238
 C         0.040794        -0.262306         0.204483
 H         0.483085         3.055481         1.126842
 H         2.007454         3.729350         0.328338
 H         0.427449         3.236042        -0.706671
 H         3.793416         2.144963         1.194076
 H         2.687477         1.034663         2.025095
 H         2.809025        -0.853020        -1.369653
 H         3.330709         1.971295        -1.927980
 H         0.510464        -0.487644         1.286157
 H        -0.769351         0.483190         0.376619
 H        -0.533348        -1.082712        -0.184439
