19
Iteration:  3454charge 0 multiplicity 1
 C         1.349590         3.079079         0.230872
 C         2.037694         1.743877         0.049857
 C         3.013977         1.290047         1.023184
 O         3.484698         0.053736         0.505523
 C         2.754001        -0.031757        -0.767500
 C         2.514015         1.398559        -1.385269
 O         1.166924         1.013605        -1.855396
 C         1.235474         0.416109        -0.468188
 C         0.114858        -0.359102         0.257444
 H         0.793665         3.282751         1.204775
 H         2.093338         3.798872        -0.014192
 H         0.421014         3.166776        -0.517452
 H         3.893437         1.929407         1.223137
 H         2.455399         1.159758         1.929330
 H         2.987281        -1.064185        -1.125478
 H         3.233546         2.019613        -1.977062
 H         0.499290        -0.512470         1.343023
 H        -0.848205         0.224393         0.277666
 H        -0.109987        -1.341509        -0.216236
