19
Iteration:  2751charge 0 multiplicity 1
 C         1.234989         3.068339         0.238681
 C         1.987659         1.768578         0.052566
 C         3.172945         1.363543         0.877973
 O         3.423941         0.057997         0.551260
 C         2.662317        -0.070084        -0.695435
 C         2.526274         1.337894        -1.380675
 O         1.193619         0.956969        -1.748900
 C         1.283392         0.459379        -0.415140
 C         0.178571        -0.315368         0.123019
 H         0.624664         3.008099         1.201674
 H         1.965957         3.800475         0.313659
 H         0.538859         3.229138        -0.563143
 H         4.012100         1.994504         0.760190
 H         2.963343         1.404891         1.964380
 H         2.997510        -1.143346        -1.131977
 H         2.990900         1.958090        -2.178621
 H         0.444158        -0.712134         1.096119
 H        -0.668110         0.317905         0.261376
 H        -0.226130        -1.262134        -0.351367
