19
Iteration:   961charge 0 multiplicity 1
 C         1.193990         3.063825         0.347181
 C         2.050745         1.842695         0.056778
 C         3.284052         1.432358         0.866609
 O         3.438762        -0.004617         0.540581
 C         2.699847        -0.089028        -0.699539
 C         2.565363         1.341939        -1.360631
 O         1.187956         0.955074        -1.895164
 C         1.214059         0.450564        -0.413034
 C         0.041560        -0.370509         0.197610
 H         0.895736         2.919689         1.352085
 H         1.773945         4.030214         0.414291
 H         0.214715         3.207399        -0.288117
 H         4.098913         1.980038         0.443164
 H         3.277118         1.479477         2.001185
 H         2.880488        -0.909865        -1.202320
 H         3.105422         1.857407        -2.256621
 H         0.444490        -0.599638         1.205110
 H        -0.923212         0.240987         0.300962
 H        -0.311095        -1.296020        -0.417785
