19
Iteration:  4473charge 0 multiplicity 1
 C         1.227387         3.039712         0.254853
 C         1.994786         1.745562         0.063690
 C         3.095814         1.302675         1.085073
 O         3.442234         0.015203         0.551193
 C         2.759534         0.000190        -0.825273
 C         2.567688         1.437729        -1.322724
 O         1.147084         0.931067        -1.871822
 C         1.309715         0.377648        -0.514719
 C         0.131392        -0.242497         0.149851
 H         0.756843         3.175286         1.285770
 H         1.922977         3.816645         0.252701
 H         0.408274         3.224765        -0.411853
 H         3.932307         2.044009         1.091926
 H         2.793773         0.945762         2.130641
 H         2.988004        -0.991829        -1.428269
 H         3.293451         2.135572        -1.807424
 H         0.447803        -0.457417         1.192867
 H        -0.750157         0.467448         0.178242
 H        -0.180385        -1.255070        -0.229668
