19
Iteration:  4355charge 0 multiplicity 1
 C         1.251526         3.041818         0.276575
 C         2.028242         1.813323        -0.009535
 C         3.075934         1.306178         1.039880
 O         3.418768        -0.031254         0.561308
 C         2.702924        -0.009576        -0.647259
 C         2.550772         1.339516        -1.413363
 O         1.202878         1.041405        -1.918635
 C         1.291293         0.551200        -0.427768
 C         0.159108        -0.399552         0.201954
 H         0.869095         3.099152         1.363170
 H         1.830792         3.897847         0.140234
 H         0.290332         3.018794        -0.296780
 H         3.826864         2.113841         1.007427
 H         2.644004         1.162203         1.992286
 H         2.878890        -0.932711        -1.336668
 H         3.189044         1.765826        -2.251100
 H         0.544404        -0.947267         1.085566
 H        -0.770669         0.146465         0.190690
 H         0.112961        -1.017166        -0.603296
