19
Iteration:  2298
 C         1.232560         2.974028         0.220878
 C         2.032227         1.704389         0.029938
 C         3.098232         1.423435         1.063341
 O         3.580346         0.098160         0.463324
 C         2.758374        -0.091452        -0.748575
 C         2.537239         1.316490        -1.426231
 O         1.129975         0.883758        -1.810952
 C         1.273691         0.439742        -0.401375
 C         0.034871        -0.171673         0.230423
 H         0.828064         2.910813         1.254085
 H         1.995867         3.879023         0.464884
 H         0.479892         3.220131        -0.528758
 H         3.942517         2.105179         1.199974
 H         2.540267         1.185066         2.035783
 H         3.101048        -0.814617        -1.340736
 H         3.155431         1.882816        -2.094817
 H        -0.009624        -0.475529         1.249948
 H        -0.873965         0.468072         0.028842
 H        -0.047870        -1.034473        -0.510969
