19
Iteration:  3603charge 0 multiplicity 1
 C         1.373307         3.097852         0.180621
 C         2.028261         1.711402         0.061456
 C         2.955360         1.240421         1.107416
 O         3.558327         0.092545         0.491588
 C         2.774336        -0.007632        -0.813121
 C         2.512694         1.386313        -1.293010
 O         1.136798         0.977591        -1.871112
 C         1.230352         0.402965        -0.504937
 C         0.064772        -0.315738         0.254174
 H         1.016553         3.131022         1.221653
 H         2.117771         4.067043         0.005517
 H         0.516262         3.262324        -0.507532
 H         3.776765         1.916732         1.269250
 H         2.656063         1.005128         2.120129
 H         3.140848        -0.904767        -1.301211
 H         2.923320         1.977874        -2.142852
 H         0.481516        -0.671742         1.197623
 H        -0.719865         0.404098         0.429154
 H        -0.221416        -1.315686        -0.315578
