19
Iteration:  1866
 C         1.302483         3.096492         0.128266
 C         1.946963         1.718189         0.041581
 C         2.992997         1.250452         1.125232
 O         3.749207         0.176046         0.384042
 C         2.783644        -0.056723        -0.656174
 C         2.495346         1.318060        -1.363024
 O         1.129531         0.909000        -1.810572
 C         1.271947         0.385909        -0.326870
 C         0.000290        -0.228684         0.181104
 H         0.549430         3.077529         0.879808
 H         2.062907         3.809476         0.332220
 H         0.706241         3.408726        -0.793730
 H         3.656999         2.080728         1.227064
 H         2.555983         1.023642         2.108649
 H         2.929004        -0.891463        -1.284820
 H         3.054061         1.771073        -2.118435
 H         0.086966        -0.598838         1.291285
 H        -0.917492         0.362726        -0.014831
 H        -0.178074        -1.028275        -0.543551
