19
Iteration:  2759
 C         1.258765         3.046717         0.270959
 C         1.995040         1.764418         0.071870
 C         3.180720         1.416850         0.964623
 O         3.434040         0.065809         0.499322
 C         2.689709        -0.094060        -0.732574
 C         2.539578         1.343782        -1.377739
 O         1.198378         0.881662        -1.779524
 C         1.223277         0.480136        -0.426747
 C         0.126268        -0.307717         0.138922
 H         0.497961         3.190798         1.125430
 H         1.899819         4.029098         0.372511
 H         0.657795         3.036202        -0.594313
 H         3.995055         2.101017         0.623628
 H         3.063177         1.373955         2.052949
 H         2.852154        -1.058521        -1.215832
 H         3.160967         1.949836        -1.968668
 H         0.593795        -0.650358         1.146627
 H        -0.779394         0.292599         0.421922
 H        -0.143206        -1.048712        -0.572242
