19
Iteration:  4560
 C         1.284011         3.072488         0.191161
 C         1.969079         1.755867         0.080090
 C         3.039960         1.232011         1.099143
 O         3.633997         0.053408         0.464306
 C         2.801419         0.017451        -0.674581
 C         2.467116         1.432489        -1.304534
 O         1.140448         0.924333        -1.824855
 C         1.260280         0.355722        -0.451772
 C         0.016076        -0.251487         0.094196
 H         0.576555         3.112878         1.061408
 H         2.186774         3.657290         0.375796
 H         0.791012         3.248588        -0.720531
 H         3.760441         2.109814         1.158040
 H         2.813268         1.038998         2.201841
 H         3.150979        -0.729375        -1.519925
 H         3.217275         1.914462        -1.970260
 H         0.210984        -0.797778         0.988175
 H        -0.765833         0.444038         0.396807
 H        -0.307494        -0.839461        -0.786201
