19
Iteration:  2586charge 0 multiplicity 1
 C         1.240419         3.075613         0.213670
 C         1.972913         1.767903         0.002969
 C         3.126384         1.379152         1.014619
 O         3.477014         0.001167         0.525390
 C         2.783760        -0.071566        -0.751059
 C         2.546761         1.329451        -1.388856
 O         1.125590         0.982533        -1.816807
 C         1.240060         0.416698        -0.430438
 C         0.161588        -0.288078         0.226346
 H         0.683853         2.969344         1.247433
 H         1.983269         3.919084         0.176415
 H         0.494636         3.471576        -0.474640
 H         3.988659         1.978409         0.947619
 H         2.767583         1.458175         2.107933
 H         2.986306        -1.148458        -1.141625
 H         3.101635         1.914816        -2.091137
 H         0.401369        -0.952741         1.106840
 H        -0.586650         0.469848         0.376120
 H        -0.246708        -0.951250        -0.422024
