19
Iteration:   560
 C         1.263230         3.071504         0.284240
 C         1.976281         1.741827         0.069421
 C         3.014293         1.245966         1.137370
 O         3.487171        -0.034639         0.425812
 C         2.787649         0.029218        -0.844154
 C         2.536271         1.361148        -1.425387
 O         1.089016         0.981537        -1.847271
 C         1.317608         0.437451        -0.482098
 C         0.215877        -0.219036         0.304269
 H         0.678284         3.168638         1.191855
 H         2.103195         3.846919         0.230598
 H         0.595875         3.328934        -0.653170
 H         3.919062         1.726359         1.440672
 H         2.417288         1.015621         2.149891
 H         2.989804        -0.791426        -1.467922
 H         3.055416         2.012276        -2.185607
 H         0.438573        -0.151964         1.346528
 H        -0.750458         0.210928        -0.035315
 H         0.077648        -1.355193         0.015820
