19
Iteration:   628
 C         1.284359         2.993283         0.340589
 C         2.026327         1.730799         0.067504
 C         3.228498         1.377508         0.977524
 O         3.538945         0.009551         0.478213
 C         2.767611        -0.075681        -0.706506
 C         2.425953         1.477571        -1.419651
 O         1.097637         0.865368        -1.786185
 C         1.284491         0.428132        -0.398660
 C         0.048168        -0.206437         0.079941
 H         0.744330         2.956995         1.346264
 H         2.019869         3.813651         0.356484
 H         0.536347         3.258975        -0.514519
 H         4.093195         2.051822         1.040278
 H         2.786482         1.323100         2.106507
 H         2.956894        -1.001050        -1.165798
 H         3.002444         2.122945        -2.110584
 H         0.012326        -0.498333         1.125896
 H        -0.775890         0.533984        -0.088584
 H        -0.264197        -1.088823        -0.637591
