19
Iteration:  4544
 C         1.307250         3.117331         0.230654
 C         1.941764         1.728167         0.055622
 C         3.044923         1.315316         1.063748
 O         3.546637         0.041703         0.453377
 C         2.797195        -0.040737        -0.745391
 C         2.556085         1.379409        -1.358545
 O         1.191796         0.966695        -1.773328
 C         1.281613         0.441483        -0.377358
 C         0.050439        -0.358689         0.088327
 H         0.676926         3.145848         1.118329
 H         2.057488         4.037025         0.392910
 H         0.568033         3.365333        -0.636744
 H         3.913469         1.947647         1.215581
 H         2.371409         1.130318         1.886670
 H         2.949474        -0.955311        -1.203328
 H         3.012053         2.154035        -1.982532
 H         0.086088        -1.017314         1.019241
 H        -0.752791         0.396865         0.253679
 H        -0.360642        -1.147192        -0.609773
