19
Iteration:  3771
 C         1.332717         3.149794         0.224057
 C         1.963936         1.727002         0.051511
 C         2.968272         1.212632         1.045447
 O         3.608649         0.048060         0.387324
 C         2.705134         0.038739        -0.713444
 C         2.561665         1.388379        -1.317501
 O         1.206267         0.919747        -1.806757
 C         1.264412         0.417555        -0.378153
 C         0.041316        -0.319214         0.160928
 H         0.784633         3.297774         1.220705
 H         2.055174         3.893392         0.290961
 H         0.694084         3.226384        -0.737959
 H         3.638021         2.011212         1.139144
 H         2.511726         1.105771         1.999261
 H         2.923851        -0.790871        -1.470468
 H         3.094946         2.009488        -2.020785
 H         0.385907        -0.741676         1.156308
 H        -0.762054         0.404114         0.437911
 H        -0.328913        -1.102578        -0.361638
