19
Iteration:   660charge 0 multiplicity 1
 C         1.169760         3.023917         0.507573
 C         2.007293         1.762608         0.049104
 C         3.288870         1.454466         0.864236
 O         3.392910         0.035484         0.536062
 C         2.666812        -0.118711        -0.700651
 C         2.585543         1.261362        -1.448289
 O         1.228144         0.998541        -1.944066
 C         1.224137         0.538895        -0.467672
 C         0.089927        -0.322510         0.203184
 H         0.769638         2.866968         1.560374
 H         1.843369         3.926400         0.520979
 H         0.266732         3.201485        -0.259334
 H         4.097320         2.060679         0.552399
 H         3.161355         1.408593         2.046745
 H         2.815067        -1.085819        -0.994018
 H         3.378130         1.649614        -2.125499
 H         0.609915        -0.912726         0.929626
 H        -0.694140         0.371671         0.565178
 H        -0.495094        -1.047875        -0.545607
