19
Iteration:   476
 C         1.280732         3.050699         0.256481
 C         1.998451         1.748647         0.088829
 C         3.136958         1.245145         1.081170
 O         3.645706         0.089357         0.430411
 C         2.820131         0.020625        -0.743202
 C         2.457687         1.398540        -1.394122
 O         1.098766         0.831143        -1.771489
 C         1.294854         0.404685        -0.339159
 C        -0.023222        -0.189791         0.091541
 H         0.714783         2.970419         1.193639
 H         1.871450         3.886077         0.284827
 H         0.482738         3.165071        -0.534834
 H         4.107405         1.915940         1.109036
 H         2.751391         1.041292         2.013171
 H         3.032421        -0.793947        -1.329357
 H         3.027210         1.991129        -2.134463
 H        -0.075574        -1.077326         0.656599
 H        -0.731796         0.598356         0.465732
 H        -0.591397        -0.391693        -0.941621
