19
Iteration:  1947charge 0 multiplicity 1
 C         1.165242         2.977504         0.271915
 C         1.999348         1.758728        -0.032976
 C         3.130360         1.434267         1.037889
 O         3.417550         0.038274         0.516649
 C         2.716381        -0.024936        -0.719499
 C         2.579332         1.278743        -1.397892
 O         1.232736         0.965911        -1.929629
 C         1.297421         0.457519        -0.444947
 C         0.130953        -0.299959         0.285721
 H         0.990085         3.013611         1.315238
 H         1.814740         3.933795         0.136634
 H         0.264332         3.034475        -0.292291
 H         3.993203         2.044453         0.979928
 H         2.722250         1.463992         2.082844
 H         2.870481        -1.000782        -1.271759
 H         3.253579         1.916603        -2.073390
 H         0.412847        -0.525450         1.296244
 H        -0.617352         0.480976         0.421712
 H        -0.257354        -1.232631        -0.178635
