19
Iteration:  4621charge 0 multiplicity 1
 C         1.145602         2.937506         0.351118
 C         2.056443         1.786594         0.015755
 C         3.106748         1.319960         1.120421
 O         3.413536         0.000194         0.465888
 C         2.733353        -0.066364        -0.671017
 C         2.574193         1.399283        -1.462156
 O         1.189984         0.945092        -1.870104
 C         1.352763         0.502104        -0.518283
 C         0.149370        -0.176654         0.171575
 H         0.699838         2.732289         1.299103
 H         1.600687         3.991636         0.306238
 H         0.370528         3.160913        -0.430646
 H         4.026848         1.925508         1.048341
 H         2.675611         1.235439         2.193002
 H         3.021476        -1.019630        -1.063106
 H         3.230823         1.922889        -2.152915
 H         0.407192        -0.660082         1.128014
 H        -0.732555         0.477742         0.229881
 H        -0.296172        -1.139357        -0.366334
