19
Iteration:  1279charge 0 multiplicity 1
 C         1.397532         3.078849         0.248750
 C         1.947237         1.731845         0.110859
 C         3.048974         1.370005         1.029500
 O         3.696965         0.213809         0.389563
 C         2.760043        -0.079257        -0.678155
 C         2.545179         1.350085        -1.350318
 O         1.101047         0.846289        -1.810783
 C         1.194478         0.389261        -0.417409
 C        -0.029793        -0.328993         0.142148
 H         1.129202         3.293972         1.284392
 H         2.200518         3.779664        -0.198484
 H         0.567661         3.337852        -0.486727
 H         3.657613         2.190452         1.357942
 H         2.479837         0.976835         1.958235
 H         2.967429        -0.986005        -1.202750
 H         3.197266         1.844020        -2.186548
 H         0.018572        -0.315204         1.260417
 H        -0.927637         0.300362         0.030743
 H        -0.336945        -1.345447        -0.284743
