19
Iteration:   186charge 0 multiplicity 1
 C         1.368171         3.133862         0.189961
 C         1.933696         1.755550         0.046829
 C         2.980544         1.227292         1.075162
 O         3.713755         0.237101         0.376179
 C         2.770432        -0.001285        -0.652798
 C         2.484462         1.339036        -1.421750
 O         1.135479         0.818988        -1.771860
 C         1.234612         0.403906        -0.316957
 C         0.020999        -0.302624         0.090680
 H         0.805735         3.118695         1.171589
 H         2.241691         3.869493         0.342447
 H         0.766833         3.458261        -0.612717
 H         3.648349         1.965000         1.717097
 H         2.328292         0.761199         1.904549
 H         3.015027        -0.940738        -1.029604
 H         3.030667         1.818257        -2.174415
 H        -0.043103        -0.727094         1.194944
 H        -0.806859         0.483397         0.043852
 H        -0.003323        -1.189971        -0.545893
