19
Iteration:  3737
 C         1.255069         2.957443         0.296389
 C         2.047644         1.767213         0.019186
 C         2.937853         1.232792         1.084603
 O         3.617494         0.098198         0.437103
 C         2.732977        -0.077265        -0.732047
 C         2.590302         1.297970        -1.426044
 O         1.134552         0.991555        -1.770725
 C         1.271764         0.458436        -0.448286
 C         0.106250        -0.157081         0.143430
 H         0.884319         3.024490         1.351180
 H         1.723563         3.887273        -0.017944
 H         0.238127         2.975326        -0.295115
 H         3.626838         2.021749         1.173108
 H         2.395916         1.033360         1.984482
 H         2.967583        -1.017815        -1.265421
 H         3.279687         1.802430        -2.086733
 H         0.521863        -0.573573         1.124788
 H        -0.527078         0.713405         0.368545
 H        -0.359621        -0.876147        -0.429585
