19
Iteration:  4964charge 0 multiplicity 1
 C         1.132376         3.017412         0.232498
 C         2.019337         1.725618         0.047601
 C         3.041785         1.236896         1.118866
 O         3.616271         0.161463         0.382828
 C         2.701255        -0.075414        -0.706640
 C         2.561057         1.275811        -1.421368
 O         1.248505         1.036562        -1.822990
 C         1.233255         0.419811        -0.405177
 C         0.056461        -0.187762         0.202619
 H         0.511773         2.839017         1.165408
 H         1.840663         3.794580         0.555400
 H         0.676805         3.208553        -0.739017
 H         3.948760         1.832963         1.226292
 H         2.551261         0.891592         2.105116
 H         3.083597        -0.971282        -1.163752
 H         3.356535         1.595431        -2.236562
 H         0.322263        -0.893295         1.123557
 H        -0.653798         0.596169         0.532008
 H        -0.336537        -0.821854        -0.533007
