19
Iteration:  4582charge 0 multiplicity 1
 C         1.210478         2.996664         0.263217
 C         1.996987         1.728540         0.109713
 C         3.029361         1.314102         1.084767
 O         3.565140         0.125260         0.385024
 C         2.771712        -0.053551        -0.685428
 C         2.613328         1.291490        -1.375417
 O         1.218798         0.981177        -1.835925
 C         1.258654         0.405382        -0.440862
 C         0.011534        -0.237278         0.130358
 H         0.490974         3.029945         1.142394
 H         1.966409         3.825670         0.377898
 H         0.663692         3.202415        -0.615747
 H         3.838775         2.034706         1.373621
 H         2.819266         0.873872         2.045868
 H         2.848102        -1.083747        -1.226201
 H         3.061872         2.137364        -1.926535
 H         0.244374        -0.721733         1.063165
 H        -0.624837         0.607891         0.412839
 H        -0.470203        -0.773657        -0.655276
