19
Iteration:  4839
 C         1.304895         3.094757         0.210938
 C         2.022176         1.708879         0.101641
 C         3.015804         1.251517         1.081544
 O         3.598895         0.130727         0.456743
 C         2.777490        -0.067114        -0.766278
 C         2.525733         1.410118        -1.325023
 O         1.134755         0.885716        -1.793897
 C         1.263007         0.437634        -0.414649
 C         0.052105        -0.260165         0.111814
 H         0.570725         3.220022         1.005038
 H         2.221158         3.751806         0.398698
 H         0.743970         3.271325        -0.763832
 H         3.729333         2.064890         1.223780
 H         2.550291         0.964170         2.125086
 H         2.870531        -0.942484        -1.507550
 H         2.974067         2.151467        -1.890581
 H         0.240459        -0.528474         1.103707
 H        -0.892009         0.291887         0.038404
 H        -0.195887        -1.235777        -0.517193
