19
Iteration:  3024charge 0 multiplicity 1
 C         1.216456         2.960751         0.194957
 C         2.003892         1.740660         0.051361
 C         3.066201         1.394541         0.956324
 O         3.500617         0.016961         0.567204
 C         2.734058        -0.111989        -0.708579
 C         2.520059         1.352904        -1.354071
 O         1.168337         0.985254        -1.890418
 C         1.280723         0.481964        -0.455322
 C         0.128390        -0.206699         0.240020
 H         0.677495         2.851392         1.233574
 H         1.957008         3.718558         0.270924
 H         0.576854         3.211512        -0.630530
 H         3.979241         2.069488         0.781273
 H         2.999714         1.374436         2.092215
 H         3.034822        -1.132162        -1.236809
 H         3.175673         2.051382        -1.916837
 H         0.479125        -0.638272         1.160122
 H        -0.703100         0.318123         0.692845
 H        -0.201061        -1.024759        -0.555260
