19
Iteration:  1609charge 0 multiplicity 1
 C         1.221493         3.077917         0.108942
 C         2.035791         1.816951        -0.003944
 C         3.069486         1.312525         1.028721
 O         3.558237         0.047775         0.526317
 C         2.730173        -0.054667        -0.649275
 C         2.532891         1.357204        -1.338102
 O         1.099516         0.904831        -1.808860
 C         1.290003         0.407631        -0.436555
 C         0.136119        -0.306234         0.167844
 H         0.883348         3.234907         1.195377
 H         1.951597         3.956132        -0.008616
 H         0.401200         3.177743        -0.475458
 H         3.990096         1.979810         1.223734
 H         2.619663         1.153868         2.000058
 H         2.929816        -0.881275        -1.212342
 H         3.033764         2.062090        -2.026058
 H         0.509279        -0.817642         1.089184
 H        -0.493733         0.502098         0.612231
 H        -0.460048        -0.771010        -0.591422
