19
Iteration:  3219charge 0 multiplicity 1
 C         1.293457         3.078926         0.271991
 C         1.960315         1.733757         0.049966
 C         3.005476         1.305858         1.093708
 O         3.641635         0.167686         0.412004
 C         2.744230        -0.068805        -0.703264
 C         2.509886         1.195859        -1.431634
 O         1.181936         0.911592        -1.775917
 C         1.247960         0.497330        -0.368616
 C         0.060339        -0.236250         0.108211
 H         0.530483         3.077390         1.081214
 H         2.115361         3.900070         0.461413
 H         0.718404         3.253892        -0.595468
 H         3.846280         1.987918         1.325072
 H         2.563484         1.030458         2.007365
 H         2.860135        -1.014210        -1.321617
 H         3.192032         1.703846        -2.089261
 H         0.302042        -0.709489         1.032916
 H        -0.723803         0.492539         0.190850
 H        -0.356273        -0.889347        -0.694956
