19
Iteration:  1126charge 0 multiplicity 1
 C         1.280932         3.120814         0.208623
 C         1.981209         1.755970         0.011204
 C         3.119877         1.382210         0.928648
 O         3.643064         0.078667         0.445684
 C         2.730086        -0.076354        -0.631920
 C         2.491470         1.338097        -1.322603
 O         1.180727         0.942840        -1.731583
 C         1.214771         0.412652        -0.407655
 C         0.017070        -0.368158         0.143805
 H         0.910923         3.267146         1.177264
 H         1.987270         3.962083         0.021388
 H         0.396018         3.107022        -0.512928
 H         3.746909         2.213275         0.732391
 H         2.923145         1.174293         2.077334
 H         2.803297        -0.983663        -1.106740
 H         3.226521         1.958293        -1.993242
 H         0.258312        -1.232647         0.805323
 H        -0.633258         0.420476         0.720244
 H        -0.738370        -0.833948        -0.686290
