19
Iteration:  3897
 C         1.179283         3.000233         0.296776
 C         1.961532         1.725838         0.059676
 C         3.016400         1.213486         1.195577
 O         3.676647         0.157579         0.380825
 C         2.794215        -0.115125        -0.765990
 C         2.534206         1.247543        -1.461956
 O         1.174856         0.943059        -1.821690
 C         1.311581         0.483730        -0.430414
 C         0.036628        -0.050332         0.175542
 H         0.723353         3.020555         1.296796
 H         1.880509         3.822284        -0.102076
 H         0.417254         2.867037        -0.415983
 H         3.640138         2.040586         1.561643
 H         2.371196         0.779882         2.001935
 H         3.014877        -1.043626        -1.258180
 H         3.213345         1.919242        -1.996889
 H         0.329260        -0.516955         1.079469
 H        -0.815741         0.539682         0.337925
 H        -0.314622        -0.919177        -0.467711
