19
Iteration:  4639
 C         1.175655         2.997009         0.324366
 C         1.967351         1.774006         0.032514
 C         3.078939         1.308638         0.945579
 O         3.411083        -0.029585         0.576014
 C         2.741831        -0.010744        -0.780669
 C         2.545058         1.371176        -1.361856
 O         1.273656         0.996371        -1.874216
 C         1.320697         0.421918        -0.445201
 C         0.163162        -0.229893         0.197906
 H         0.815002         2.934200         1.373404
 H         1.845564         3.794331         0.270750
 H         0.409696         3.090349        -0.524876
 H         3.875995         2.068968         0.868972
 H         2.624768         1.189479         1.958839
 H         2.887890        -0.798019        -1.502857
 H         3.187639         2.060591        -2.022368
 H         0.377986        -0.561951         1.267182
 H        -0.672382         0.486189         0.151544
 H        -0.138311        -1.140153        -0.202481
