19
Iteration:  2821
 C         1.221147         3.020656         0.187384
 C         2.046950         1.690725         0.000575
 C         3.033261         1.219394         1.092856
 O         3.608895         0.152312         0.483490
 C         2.754579        -0.018841        -0.724601
 C         2.469024         1.361275        -1.447526
 O         1.141760         0.883404        -1.838404
 C         1.332528         0.427615        -0.412784
 C         0.089303        -0.155478         0.271635
 H         0.741929         3.060701         1.104443
 H         1.995690         3.846569         0.185800
 H         0.384117         3.150778        -0.639348
 H         3.817187         1.992530         1.447021
 H         2.510405         0.928025         2.017708
 H         2.845306        -0.844028        -1.399737
 H         3.211517         1.900790        -2.094859
 H         0.328673        -0.839838         1.119568
 H        -0.631203         0.687902         0.511457
 H        -0.489121        -0.819700        -0.367926
