19
Iteration:  3940charge 0 multiplicity 1
 C         1.230755         3.057709         0.236185
 C         1.963709         1.720787         0.091670
 C         3.165034         1.360684         1.007351
 O         3.421759         0.027196         0.516164
 C         2.777206        -0.021883        -0.734230
 C         2.510296         1.324967        -1.376044
 O         1.181221         0.992478        -1.812350
 C         1.274984         0.412757        -0.417794
 C         0.127003        -0.285827         0.127133
 H         0.575257         2.972221         1.253101
 H         2.059877         3.826789         0.555600
 H         0.662242         3.341086        -0.628521
 H         4.017710         2.015685         0.792744
 H         2.902615         1.217665         2.061894
 H         2.946323        -0.941745        -1.280052
 H         3.118735         1.907635        -2.123967
 H         0.477719        -0.551630         1.083947
 H        -0.693518         0.389068         0.191026
 H        -0.226124        -1.142576        -0.557419
