19
Iteration:   977charge 0 multiplicity 1
 C         1.204281         3.039462         0.326881
 C         1.945079         1.731837         0.025327
 C         3.191496         1.365165         0.897938
 O         3.593997         0.026621         0.429277
 C         2.691501        -0.048183        -0.650316
 C         2.499119         1.321930        -1.354475
 O         1.220871         0.961663        -1.812394
 C         1.232272         0.447777        -0.414281
 C         0.041869        -0.239184         0.198277
 H         0.655212         2.994181         1.336604
 H         1.896488         3.861062         0.092698
 H         0.441245         3.121676        -0.436150
 H         4.053297         2.120722         0.711029
 H         3.051530         1.353102         1.967329
 H         2.867102        -1.056920        -1.335504
 H         3.288050         1.861970        -1.841050
 H         0.133179        -0.373507         1.279445
 H        -0.902994         0.253741         0.126198
 H        -0.105636        -1.194724        -0.305369
