19
Iteration:  1933charge 0 multiplicity 1
 C         1.157950         2.986635         0.315312
 C         2.082604         1.852154         0.002123
 C         3.123549         1.395846         0.973863
 O         3.399085         0.000435         0.600619
 C         2.718796        -0.106259        -0.650572
 C         2.539737         1.425409        -1.498783
 O         1.191335         0.881622        -1.845030
 C         1.281316         0.403070        -0.521451
 C         0.192901        -0.176828         0.208743
 H         0.712494         2.698140         1.213175
 H         1.527329         4.017469         0.326237
 H         0.226181         2.981344        -0.405240
 H         4.004495         1.995035         0.807922
 H         2.993260         1.286004         2.077894
 H         3.022183        -0.945266        -1.171830
 H         3.182705         1.827961        -2.291458
 H         0.675125        -0.437693         1.271639
 H        -0.767063         0.392322         0.244571
 H        -0.106899        -1.108977        -0.294799
