19
Iteration:  3419
 C         1.193604         3.085717         0.253943
 C         2.048295         1.799161         0.045815
 C         3.158177         1.312409         0.922286
 O         3.400332         0.005385         0.514224
 C         2.687873        -0.063861        -0.746013
 C         2.579225         1.402024        -1.352761
 O         1.183312         0.947762        -1.788572
 C         1.289201         0.461792        -0.428905
 C         0.167109        -0.319008         0.181053
 H         0.934286         3.213077         1.372906
 H         1.740812         3.997918         0.115276
 H         0.356117         3.137314        -0.605473
 H         4.118153         1.932120         1.022125
 H         2.688155         1.345085         1.947466
 H         2.553397        -1.115556        -1.138329
 H         3.422005         1.985571        -1.907990
 H         0.320509        -0.729436         1.182905
 H        -0.762980         0.293463         0.257857
 H        -0.110412        -1.268704        -0.543750
