19
Iteration:  4495
 C         1.254415         3.071502         0.319430
 C         2.017173         1.805621         0.016779
 C         3.012082         1.307813         0.975831
 O         3.390703        -0.033606         0.551805
 C         2.704119        -0.039072        -0.719440
 C         2.532235         1.398698        -1.391297
 O         1.267058         1.021258        -1.843851
 C         1.303280         0.444065        -0.454830
 C         0.187726        -0.329878         0.152529
 H         0.822388         3.206402         1.364513
 H         1.870784         3.883222         0.190911
 H         0.378284         3.099187        -0.309207
 H         3.916001         1.954633         0.837981
 H         2.630430         1.309713         2.086192
 H         3.011160        -0.925371        -1.447127
 H         3.105605         1.921834        -2.202102
 H         0.417876        -0.678060         1.212325
 H        -0.824088         0.041620         0.263816
 H         0.095122        -1.337834        -0.294412
