19
Iteration:  2880
 C         1.279633         2.984899         0.222774
 C         2.103311         1.813927        -0.002705
 C         3.134718         1.449524         0.987548
 O         3.440436        -0.032769         0.567648
 C         2.716265        -0.085344        -0.636141
 C         2.455196         1.346172        -1.449054
 O         1.151657         0.996291        -1.811231
 C         1.286528         0.459078        -0.460364
 C         0.146094        -0.329013         0.174303
 H         0.685425         2.873780         1.279583
 H         1.756523         4.058425         0.222646
 H         0.572878         3.108025        -0.546430
 H         4.092170         2.075828         0.900759
 H         2.672480         1.431131         2.027197
 H         2.868057        -0.918668        -1.321359
 H         3.002343         2.015569        -2.066081
 H         0.258728        -0.361905         1.294111
 H        -0.850707         0.145749         0.256001
 H         0.088768        -1.337126        -0.366365
