19
Iteration:  3338
 C         1.238353         3.047508         0.272744
 C         2.018378         1.761455         0.063135
 C         3.020998         1.220662         1.085509
 O         3.630476         0.070595         0.411603
 C         2.787267        -0.049063        -0.629565
 C         2.494254         1.359300        -1.418892
 O         1.159853         0.861592        -1.873801
 C         1.265595         0.497385        -0.478465
 C         0.033984        -0.172830         0.225717
 H         0.472054         3.022262         0.976562
 H         1.961172         3.956909         0.425160
 H         0.734724         3.182109        -0.598909
 H         3.839044         1.977984         1.138587
 H         2.489289         1.069924         2.112912
 H         3.146645        -0.860652        -1.296837
 H         3.159786         1.886689        -2.050688
 H         0.417903        -0.696315         1.165142
 H        -0.717752         0.635307         0.415031
 H        -0.369945        -0.886014        -0.518798
