19
Iteration:  4773
 C         1.132029         2.933050         0.328627
 C         2.034186         1.860020        -0.016540
 C         3.132448         1.300189         1.080843
 O         3.411547         0.021887         0.610942
 C         2.669127        -0.067948        -0.830646
 C         2.547095         1.350026        -1.508013
 O         1.231049         0.947898        -1.843241
 C         1.401498         0.500407        -0.424181
 C         0.172346        -0.192599         0.152545
 H         0.612910         2.887686         1.283976
 H         1.720022         3.867531         0.370207
 H         0.243660         2.965444        -0.410852
 H         4.085497         1.803454         1.170815
 H         2.488006         1.251719         2.063406
 H         2.928666        -1.098896        -1.155700
 H         3.083231         1.927163        -2.199865
 H         0.447996        -0.649735         1.066676
 H        -0.592341         0.532926         0.467274
 H        -0.279212        -1.019045        -0.514800
