19
Iteration:  1851charge 0 multiplicity 1
 C         1.332145         3.105964         0.140328
 C         2.023847         1.779705         0.094822
 C         2.983828         1.271371         1.093337
 O         3.571739         0.183418         0.400684
 C         2.787259         0.022576        -0.733738
 C         2.483632         1.304106        -1.422084
 O         1.139173         0.815978        -1.690936
 C         1.307585         0.417365        -0.370667
 C         0.055780        -0.285421         0.136015
 H         0.675618         3.418898         1.051893
 H         2.084737         3.910769         0.066611
 H         0.739178         3.058719        -0.703097
 H         3.790535         1.936369         1.608251
 H         2.466643         0.806569         1.888100
 H         3.110773        -0.992342        -1.272687
 H         3.037339         1.917267        -2.179621
 H         0.084413        -0.621922         1.116630
 H        -0.692146         0.526660         0.141515
 H        -0.276872        -1.158656        -0.508041
