19
Iteration:  1064
 C         1.269067         3.032226         0.283513
 C         1.996862         1.764715        -0.003983
 C         3.088485         1.371574         0.973147
 O         3.467464         0.030685         0.518507
 C         2.737593        -0.045395        -0.746214
 C         2.497837         1.321979        -1.436548
 O         1.172149         0.972046        -1.886131
 C         1.257513         0.430086        -0.425607
 C         0.152206        -0.284193         0.309683
 H         0.603858         2.968800         1.227920
 H         1.901903         3.960395         0.415426
 H         0.611002         3.225486        -0.557419
 H         4.013967         2.083959         0.941295
 H         2.810162         1.292891         1.987493
 H         2.933272        -1.079839        -1.337251
 H         3.196237         1.975939        -1.930814
 H         0.456242        -0.487083         1.355859
 H        -0.693936         0.335800         0.301055
 H         0.015587        -1.232958        -0.156230
