19
Iteration:  4891charge 0 multiplicity 1
 C         1.300635         3.058452         0.289645
 C         1.959447         1.775532         0.030120
 C         3.069631         1.353069         0.983388
 O         3.476183         0.036606         0.494057
 C         2.689087        -0.052489        -0.588653
 C         2.547161         1.370661        -1.301881
 O         1.203910         0.985146        -1.861718
 C         1.194197         0.475481        -0.528537
 C         0.148169        -0.354527         0.119174
 H         1.084336         3.063632         1.379429
 H         2.113165         3.771966         0.290604
 H         0.374083         3.159352        -0.410523
 H         3.994763         2.008372         0.759574
 H         2.850183         1.156517         2.009786
 H         2.866315        -0.812000        -1.382090
 H         3.316100         1.835190        -2.039536
 H         0.508212        -0.555355         1.181933
 H        -0.868694         0.055902         0.250730
 H         0.054456        -1.361401        -0.379039
