19
Iteration:  3980charge 0 multiplicity 1
 C         1.317199         3.146204         0.288691
 C         2.037886         1.850927        -0.005591
 C         3.132073         1.354934         0.988856
 O         3.355752         0.044991         0.482256
 C         2.644364        -0.027001        -0.690753
 C         2.503534         1.285761        -1.368796
 O         1.224110         0.975283        -1.797268
 C         1.245874         0.442871        -0.422459
 C         0.192328        -0.448727         0.124161
 H         0.654383         3.171992         1.158022
 H         1.958826         3.901465         0.571553
 H         0.686318         3.595506        -0.472118
 H         4.100319         1.940778         1.065152
 H         2.902301         1.255852         2.055412
 H         2.883438        -0.890460        -1.255269
 H         3.134135         1.830365        -2.151598
 H         0.376496        -0.892366         1.110984
 H        -0.772856         0.090677         0.296971
 H        -0.004767        -1.405427        -0.491685
