19
Iteration:  4139
 C         1.365514         3.151570         0.272876
 C         1.953322         1.735581         0.089627
 C         3.021969         1.285632         1.031718
 O         3.505278         0.106309         0.456764
 C         2.761604         0.035057        -0.759410
 C         2.586709         1.397767        -1.374122
 O         1.176046         0.881978        -1.788878
 C         1.222700         0.448617        -0.452005
 C         0.049266        -0.415236         0.160668
 H         0.630771         3.195314         1.038738
 H         2.236634         3.829396         0.389077
 H         0.756382         3.345317        -0.657130
 H         3.908670         1.880999         1.177555
 H         2.648095         1.057245         2.016268
 H         3.043142        -0.828907        -1.440197
 H         3.150342         1.845347        -2.118486
 H         0.338266        -0.691929         1.258868
 H        -0.815068         0.310756         0.248480
 H        -0.252524        -1.242806        -0.412558
