19
Iteration:  1811charge 0 multiplicity 1
 C         1.263653         3.096886         0.238518
 C         1.932423         1.744342         0.082371
 C         3.110614         1.427311         0.958926
 O         3.375226         0.063169         0.512746
 C         2.705812        -0.065988        -0.690799
 C         2.603604         1.279053        -1.402263
 O         1.258460         0.985915        -1.889148
 C         1.221391         0.453842        -0.430099
 C         0.163864        -0.370845         0.234902
 H         1.162940         3.290402         1.319985
 H         1.764972         3.932615        -0.216395
 H         0.194537         3.151144        -0.255113
 H         3.904778         2.154784         0.846658
 H         2.738889         1.359612         2.058561
 H         2.827395        -1.047173        -1.211324
 H         3.218605         1.751631        -2.105283
 H         0.799649        -0.819547         1.086789
 H        -0.676735         0.196780         0.700218
 H        -0.014089        -1.348183        -0.285085
