19
Iteration:  1473
 C         1.253202         3.092629         0.180649
 C         2.030539         1.807897         0.027320
 C         3.082483         1.312337         1.072731
 O         3.484138         0.000712         0.490980
 C         2.736898         0.019238        -0.728572
 C         2.489252         1.329065        -1.359105
 O         1.155333         0.904726        -1.835326
 C         1.270448         0.411458        -0.408158
 C         0.189173        -0.249896         0.209297
 H         1.090191         3.403415         1.125465
 H         1.750730         3.911086        -0.242287
 H         0.234677         2.869340        -0.314054
 H         3.970379         2.050738         1.196831
 H         2.600771         1.199142         2.016300
 H         2.933331        -0.894754        -1.346743
 H         3.112648         1.924520        -2.161922
 H         0.266950        -0.286970         1.283963
 H        -0.793051         0.175445        -0.077580
 H         0.059114        -1.333985        -0.080822
