19
Iteration:  1266
 C         1.352605         3.068019         0.247018
 C         1.998105         1.743278        -0.025723
 C         3.118426         1.359980         1.009735
 O         3.671741         0.152322         0.425767
 C         2.662857        -0.014075        -0.605715
 C         2.487304         1.291510        -1.324414
 O         1.118458         0.864410        -1.799365
 C         1.196878         0.443233        -0.389076
 C         0.012782        -0.315992         0.107395
 H         0.966467         3.123727         1.262349
 H         2.045691         3.922465         0.194106
 H         0.391392         3.144982        -0.427912
 H         3.930155         2.128701         0.916111
 H         2.856965         1.194832         2.038140
 H         2.790378        -0.876259        -1.115732
 H         3.242086         1.950931        -1.875724
 H         0.058126        -0.413337         1.142732
 H        -0.886791         0.178913        -0.286417
 H         0.096466        -1.354619        -0.282766
