19
Iteration:  2911
 C         1.294139         3.125182         0.263762
 C         1.968495         1.787965         0.106467
 C         3.101275         1.389202         1.023751
 O         3.516541         0.066253         0.425139
 C         2.695807        -0.048365        -0.671625
 C         2.510119         1.245136        -1.432287
 O         1.166288         0.892306        -1.826227
 C         1.298669         0.436310        -0.374012
 C         0.099184        -0.324464         0.137300
 H         0.611470         3.177786         1.141420
 H         2.078656         4.004597         0.335679
 H         0.714829         3.391860        -0.599814
 H         3.942946         2.187431         1.062624
 H         2.900354         1.264139         2.098062
 H         2.820752        -0.903048        -1.198105
 H         3.060007         1.926494        -2.045984
 H         0.148436        -0.546264         1.293974
 H        -0.812491         0.284371        -0.130357
 H         0.077155        -1.280860        -0.363023
