19
Iteration:  3748
 C         1.299568         3.055819         0.240718
 C         2.021055         1.677606         0.056630
 C         2.990434         1.256343         1.161805
 O         3.601093         0.119586         0.387772
 C         2.774616        -0.035269        -0.655785
 C         2.541211         1.273204        -1.407222
 O         1.121763         1.019274        -1.874631
 C         1.282808         0.421036        -0.487503
 C         0.078158        -0.177030         0.185482
 H         1.021745         2.987020         1.316881
 H         1.778407         4.009621         0.164086
 H         0.367325         2.893856        -0.449633
 H         3.706088         1.904848         1.577289
 H         2.506160         0.805224         2.010080
 H         3.020730        -0.975893        -1.199980
 H         2.985770         1.875586        -2.162152
 H         0.361002        -0.747622         1.145823
 H        -0.771613         0.472115         0.466094
 H        -0.309101        -0.920797        -0.398351
