19
Iteration:  3040
 C         1.261709         3.080224         0.251611
 C         2.015378         1.774008        -0.008303
 C         3.158355         1.333337         1.035576
 O         3.484094         0.040863         0.506205
 C         2.753909         0.028346        -0.677643
 C         2.544738         1.327208        -1.428048
 O         1.155913         0.903372        -1.786154
 C         1.238817         0.417244        -0.429701
 C         0.078030        -0.301835         0.155623
 H         0.564950         2.956043         1.066656
 H         1.852494         4.055457         0.379270
 H         0.624878         3.177051        -0.744166
 H         4.015549         1.956962         1.103915
 H         2.651173         1.254052         1.971022
 H         2.970760        -0.825972        -1.217234
 H         3.145699         1.719915        -2.257725
 H         0.386687        -0.608875         1.259008
 H        -0.699641         0.517209         0.388674
 H        -0.282681        -1.034746        -0.439885
