19
Iteration:  4507
 C         1.259028         3.075426         0.302301
 C         2.015036         1.781635        -0.011886
 C         3.086477         1.322492         1.022020
 O         3.450668        -0.013117         0.590887
 C         2.690777        -0.066006        -0.715913
 C         2.574402         1.391276        -1.403914
 O         1.174430         1.021355        -1.894257
 C         1.222513         0.538661        -0.461716
 C         0.173389        -0.405197         0.141757
 H         0.980912         2.926574         1.406359
 H         1.835805         3.895933         0.184264
 H         0.367278         3.191296        -0.365741
 H         3.942825         2.001912         1.199151
 H         2.623752         1.218954         2.098769
 H         2.723302        -1.132768        -1.205992
 H         3.336056         2.028693        -1.952908
 H         0.663576        -0.554003         1.176914
 H        -0.843414         0.035472         0.177921
 H         0.185743        -1.219680        -0.522081
