19
Iteration:  4205
 C         1.200474         3.002381         0.243694
 C         1.979402         1.819630         0.077505
 C         3.113992         1.248045         0.971229
 O         3.519978         0.001885         0.525193
 C         2.682988        -0.035177        -0.724390
 C         2.539240         1.433724        -1.326915
 O         1.247143         0.989887        -1.886536
 C         1.312061         0.373490        -0.418101
 C         0.095801        -0.260944         0.173694
 H         0.766120         3.133024         1.184919
 H         1.816361         3.882777        -0.058537
 H         0.303585         3.019453        -0.435134
 H         3.856256         2.038052         1.057315
 H         2.636700         1.235815         1.970222
 H         2.935767        -0.866835        -1.388810
 H         2.989865         2.060860        -2.010748
 H         0.458089        -0.664468         1.228912
 H        -0.675374         0.542266         0.437518
 H        -0.362153        -1.046299        -0.347162
