19
Iteration:  3563
 C         1.177577         3.038080         0.290893
 C         2.087620         1.832759         0.001280
 C         3.155244         1.318953         0.992294
 O         3.430112         0.029089         0.492363
 C         2.656138        -0.068542        -0.751760
 C         2.594889         1.307417        -1.403412
 O         1.244500         0.953067        -1.791654
 C         1.280763         0.488936        -0.435949
 C         0.079491        -0.258104         0.208314
 H         0.859528         2.836766         1.324166
 H         1.347072         4.002014         0.278245
 H         0.280472         2.805911        -0.410730
 H         4.049262         2.070950         1.023241
 H         2.787513         1.298514         2.073929
 H         2.881493        -0.909049        -1.374888
 H         3.325385         1.817525        -2.029976
 H         0.364231        -0.794068         1.178322
 H        -0.824033         0.332991         0.299785
 H        -0.161378        -0.907917        -0.575859
