19
Iteration:  4697charge 0 multiplicity 1
 C         1.333222         3.107066         0.184065
 C         2.047944         1.815374         0.020358
 C         2.986153         1.252509         1.084022
 O         3.633193         0.088727         0.465183
 C         2.722517        -0.057315        -0.699405
 C         2.543474         1.345223        -1.339289
 O         1.093803         0.945561        -1.698130
 C         1.317360         0.443929        -0.436591
 C         0.036430        -0.305031         0.069809
 H         0.692922         3.042759         1.023187
 H         2.042737         3.921273         0.309057
 H         0.640453         3.405416        -0.642802
 H         3.648209         2.005941         1.477050
 H         2.584399         0.838172         2.084947
 H         2.950112        -0.902757        -1.318882
 H         2.875136         1.988194        -2.112961
 H         0.078787        -0.851514         0.987348
 H        -0.975642         0.063182        -0.100797
 H         0.072639        -1.096469        -0.750330
