19
Iteration:  3153
 C         1.172092         2.945629         0.235315
 C         2.112610         1.830928        -0.075030
 C         3.038636         1.339785         0.965193
 O         3.460439         0.004157         0.528328
 C         2.693283        -0.062850        -0.689639
 C         2.615054         1.319326        -1.361962
 O         1.215591         1.052137        -1.843774
 C         1.254664         0.481391        -0.417849
 C         0.148279        -0.277272         0.244116
 H         0.695888         2.810052         1.249657
 H         1.739197         4.010265         0.276662
 H         0.368965         2.978232        -0.462711
 H         3.995496         1.923252         0.929559
 H         2.617914         1.365340         1.929711
 H         2.787086        -1.153797        -1.167379
 H         3.169556         1.903645        -2.099385
 H         0.493850        -0.721887         1.198296
 H        -0.647684         0.450525         0.451609
 H        -0.367739        -1.204971        -0.245318
