19
Iteration:  2355
 C         1.300326         3.109238         0.228198
 C         2.030351         1.763118         0.001823
 C         3.133904         1.349279         0.908379
 O         3.453085         0.022862         0.566139
 C         2.644344        -0.011442        -0.665246
 C         2.478183         1.365881        -1.414191
 O         1.184982         0.946672        -1.824368
 C         1.269504         0.471705        -0.398346
 C         0.175158        -0.392382         0.198425
 H         0.700280         2.943499         1.207499
 H         1.914420         4.068169         0.174030
 H         0.546495         3.192881        -0.512756
 H         4.023093         2.004053         0.918758
 H         2.668320         1.371197         1.963613
 H         2.850582        -0.939824        -1.264990
 H         3.187365         1.939969        -2.063060
 H         0.432665        -0.773977         1.247537
 H        -0.725255         0.287492         0.250624
 H        -0.108930        -1.290580        -0.278976
