19
Iteration:  3969
 C         1.324358         3.144862         0.282131
 C         2.002631         1.813899         0.031985
 C         3.177404         1.401465         0.930680
 O         3.389064        -0.020670         0.577833
 C         2.692405        -0.086666        -0.677709
 C         2.500922         1.411760        -1.329224
 O         1.172995         0.992521        -1.861166
 C         1.240974         0.426925        -0.440828
 C         0.144654        -0.444574         0.135444
 H         0.670907         2.817491         1.069496
 H         2.064788         3.798150         0.554383
 H         0.804681         3.422859        -0.634514
 H         4.127003         1.986962         0.746297
 H         2.751366         1.433608         1.927042
 H         2.716473        -0.972233        -1.271677
 H         3.099858         2.110524        -2.011295
 H         0.671948        -0.675484         1.069337
 H        -0.855850         0.053028         0.268289
 H         0.029748        -1.355065        -0.551696
