19
Iteration:  1475
 C         1.247656         3.073648         0.180973
 C         2.034950         1.801642         0.038128
 C         3.085642         1.321504         1.074496
 O         3.461295         0.010484         0.491759
 C         2.723180         0.003713        -0.729334
 C         2.488878         1.329297        -1.380123
 O         1.171588         0.914609        -1.836477
 C         1.263316         0.429887        -0.413442
 C         0.191332        -0.264745         0.210771
 H         1.063001         3.423533         1.198150
 H         1.744818         4.005176        -0.242180
 H         0.278986         2.826718        -0.312445
 H         4.024333         2.065981         1.166717
 H         2.685632         1.202492         2.049321
 H         2.950646        -0.950147        -1.318875
 H         3.146591         1.910321        -2.192686
 H         0.311733        -0.317181         1.346232
 H        -0.744005         0.206590        -0.092934
 H         0.071670        -1.336452        -0.044991
