19
Iteration:    25
 C         1.364432         3.168059         0.178449
 C         1.978888         1.743865         0.001954
 C         2.913748         1.266217         1.128293
 O         3.695673         0.254917         0.423243
 C         2.822234        -0.024057        -0.723145
 C         2.469454         1.316062        -1.401168
 O         1.099703         0.785933        -1.738004
 C         1.314527         0.337866        -0.376593
 C         0.034191        -0.277198         0.143684
 H         0.531145         3.158497         0.876989
 H         2.127987         3.926390         0.565968
 H         1.003374         3.537004        -0.697076
 H         3.551174         1.976166         1.554243
 H         2.293274         0.820340         2.040353
 H         3.061643        -0.915413        -1.190034
 H         2.936802         2.003189        -2.216171
 H         0.201941        -0.852362         0.988550
 H        -0.779305         0.456081         0.279205
 H        -0.335724        -0.954493        -0.763834
