19
Iteration:  3377
 C         1.266747         2.997595         0.298742
 C         2.000435         1.730282         0.037843
 C         3.062044         1.349304         0.997878
 O         3.608172         0.113134         0.434990
 C         2.730306        -0.088785        -0.648557
 C         2.587547         1.313585        -1.361022
 O         1.120059         0.939840        -1.812986
 C         1.253791         0.384729        -0.429747
 C         0.063248        -0.187693         0.136049
 H         0.548928         3.125706         1.180130
 H         1.903486         3.822755         0.471076
 H         0.703430         3.161634        -0.744698
 H         3.853021         2.062264         1.164960
 H         2.719996         1.023096         1.938004
 H         3.166433        -1.019382        -1.185925
 H         3.074312         1.977431        -2.149935
 H         0.187901        -0.714021         1.110718
 H        -0.734093         0.561832         0.312812
 H        -0.559431        -0.659486        -0.605033
