19
Iteration:  4152charge 0 multiplicity 1
 C         1.372920         3.087189         0.196620
 C         2.022278         1.808356         0.025084
 C         2.967069         1.284965         1.160947
 O         3.591737         0.094554         0.399800
 C         2.751281        -0.047670        -0.675102
 C         2.487210         1.345494        -1.356567
 O         1.094173         0.985166        -1.859243
 C         1.269428         0.374545        -0.381410
 C         0.109736        -0.347325         0.131709
 H         0.913379         3.131576         1.169557
 H         2.128604         3.980343         0.312681
 H         0.715348         3.435263        -0.659471
 H         3.675062         2.034598         1.424711
 H         2.384818         0.922560         2.000025
 H         2.998959        -0.922927        -1.235910
 H         3.051142         2.010001        -1.953823
 H         0.382104        -0.795500         1.145076
 H        -0.842211         0.243569         0.233482
 H        -0.059763        -1.200084        -0.486654
