19
Iteration:  1197
 C         1.167660         3.040740         0.215278
 C         1.966531         1.747175         0.032691
 C         3.037500         1.314707         1.034177
 O         3.516998         0.064214         0.448130
 C         2.684818        -0.037844        -0.732159
 C         2.610188         1.300179        -1.426084
 O         1.198699         0.968684        -1.908466
 C         1.288275         0.437119        -0.435503
 C         0.178918        -0.222676         0.375718
 H         0.496389         2.829619         1.113000
 H         1.765848         3.851585         0.571520
 H         0.497468         3.203471        -0.609787
 H         3.979187         1.943988         0.934842
 H         2.756701         1.187137         2.038474
 H         2.894624        -1.031410        -1.325966
 H         3.232569         1.695370        -2.164926
 H         0.597134        -0.435437         1.376131
 H        -0.538091         0.563571         0.451330
 H        -0.258686        -1.105228         0.022042
