19
Iteration:  2305charge 0 multiplicity 1
 C         1.239737         2.994782         0.276171
 C         2.066722         1.761463        -0.027342
 C         3.073580         1.421426         1.032118
 O         3.551425         0.056244         0.460489
 C         2.750348        -0.052229        -0.661147
 C         2.510027         1.326745        -1.359595
 O         1.122882         0.920660        -1.875084
 C         1.333151         0.410878        -0.378057
 C         0.030130        -0.207037         0.213400
 H         0.814576         2.792140         1.235672
 H         1.909259         3.847371         0.280579
 H         0.519877         3.314318        -0.595689
 H         3.956861         2.077639         0.934420
 H         2.738729         1.291358         2.019711
 H         3.127141        -0.969609        -1.320929
 H         3.105361         1.762909        -2.195127
 H         0.026090        -0.627385         1.229207
 H        -0.813585         0.383173         0.003200
 H        -0.135993        -1.193538        -0.284952
