19
Iteration:  4258charge 0 multiplicity 1
 C         1.206736         2.979607         0.366012
 C         1.986362         1.799671        -0.001672
 C         3.091551         1.345385         1.034080
 O         3.597592         0.054592         0.481476
 C         2.706669        -0.083281        -0.645640
 C         2.546696         1.301328        -1.463194
 O         1.217324         0.950062        -1.846473
 C         1.297098         0.520694        -0.446997
 C         0.039077        -0.208662         0.131972
 H         0.424826         2.609532         1.035141
 H         1.833996         3.718906         0.784872
 H         0.506571         3.261052        -0.451945
 H         3.976121         2.062563         1.184718
 H         2.633652         1.238208         2.092256
 H         2.909925        -1.168364        -1.000180
 H         2.997349         1.833269        -2.338965
 H         0.224275        -0.752546         1.151100
 H        -0.902154         0.385045         0.086398
 H        -0.044954        -0.934440        -0.582897
