19
Iteration:  3644
 C         1.335614         3.137142         0.227002
 C         2.042360         1.833689         0.034801
 C         3.065804         1.261783         1.145329
 O         3.573795         0.076177         0.404999
 C         2.765209        -0.066654        -0.634649
 C         2.484239         1.290588        -1.384298
 O         1.060634         0.924490        -1.813862
 C         1.211226         0.516173        -0.425409
 C         0.111286        -0.317404         0.077871
 H         0.564464         2.958291         0.971834
 H         2.172491         3.868232         0.546563
 H         0.835473         3.478708        -0.607007
 H         3.956719         1.900617         1.307627
 H         2.572180         0.967661         2.081973
 H         2.944965        -0.992323        -1.293075
 H         3.173217         1.956907        -1.978881
 H         0.359529        -0.714176         1.042091
 H        -0.858449         0.231155         0.226353
 H         0.017248        -1.345446        -0.428159
