19
Iteration:  4450
 C         1.225176         2.962897         0.239134
 C         1.991811         1.739083         0.046770
 C         2.993355         1.284968         1.070800
 O         3.621176         0.053263         0.410539
 C         2.800593        -0.013394        -0.658564
 C         2.524430         1.330432        -1.395310
 O         1.233186         1.015120        -1.813667
 C         1.212394         0.472970        -0.423928
 C         0.050928        -0.221517         0.161264
 H         0.524966         2.986331         1.101379
 H         1.846379         3.846733         0.418415
 H         0.530714         3.072407        -0.553323
 H         3.842719         1.995637         1.282568
 H         2.599404         0.727936         1.996283
 H         2.985406        -1.026611        -1.218150
 H         3.264294         1.893397        -1.982431
 H         0.236854        -0.557719         1.174012
 H        -0.673712         0.599126         0.070660
 H        -0.323881        -1.112318        -0.505395
