19
Iteration:  3181
 C         1.197885         2.973710         0.261446
 C         1.977746         1.753924         0.079540
 C         3.090506         1.332988         1.061258
 O         3.518073         0.039891         0.503713
 C         2.772546        -0.020560        -0.739614
 C         2.503335         1.288962        -1.375839
 O         1.195152         0.946946        -1.878979
 C         1.268530         0.412372        -0.451727
 C         0.125850        -0.163371         0.167918
 H         0.527314         3.062500         1.094646
 H         1.844602         3.817626         0.343911
 H         0.773291         3.235193        -0.759080
 H         3.942771         2.006886         0.971282
 H         2.746520         1.247318         2.162023
 H         2.966002        -0.930265        -1.266320
 H         3.091375         1.849137        -2.136706
 H         0.419589        -0.690990         1.124695
 H        -0.422047         0.708225         0.605328
 H        -0.456913        -0.855446        -0.354957
