19
Iteration:  3578
 C         1.170267         2.999679         0.263721
 C         2.044141         1.779625         0.009648
 C         3.040366         1.338106         1.032106
 O         3.462801        -0.004451         0.453585
 C         2.731375        -0.049328        -0.654710
 C         2.564395         1.336379        -1.408890
 O         1.165580         0.999666        -1.818319
 C         1.330165         0.491166        -0.405205
 C         0.154684        -0.253391         0.147647
 H         0.991901         3.146864         1.364404
 H         1.969562         3.852650        -0.068444
 H         0.272875         3.181057        -0.284083
 H         4.003762         1.800858         1.155827
 H         2.695378         1.131112         2.016770
 H         2.803262        -1.053921        -1.172137
 H         3.101490         1.802788        -2.244944
 H         0.520728        -0.680584         1.088952
 H        -0.632844         0.517670         0.413043
 H        -0.126487        -1.146424        -0.429318
