19
Iteration:  3551charge 0 multiplicity 1
 C         1.147943         2.964353         0.345359
 C         2.092464         1.795565         0.023239
 C         3.198836         1.394262         0.935723
 O         3.509685        -0.017430         0.537342
 C         2.702360        -0.047035        -0.641168
 C         2.574069         1.349701        -1.367542
 O         1.169713         0.975939        -1.925021
 C         1.264410         0.482391        -0.403860
 C         0.027293        -0.238405         0.145243
 H         0.507668         2.891506         1.215633
 H         1.666332         3.820032         0.203533
 H         0.420326         2.966186        -0.546541
 H         4.231554         1.908481         0.877688
 H         2.788651         1.298943         1.992243
 H         2.826419        -0.896872        -1.289450
 H         3.344222         1.781118        -2.046759
 H         0.393121        -0.694251         1.113238
 H        -0.693349         0.481230         0.449865
 H        -0.361257        -1.119916        -0.392852
