19
Iteration:  3335charge 0 multiplicity 1
 C         1.268313         3.040202         0.269333
 C         2.018780         1.762541         0.041769
 C         2.997030         1.236222         1.088554
 O         3.627266         0.079402         0.420040
 C         2.772883        -0.061421        -0.637172
 C         2.462607         1.338431        -1.391170
 O         1.166869         0.894053        -1.855704
 C         1.293184         0.482256        -0.491904
 C         0.064004        -0.174206         0.210960
 H         0.478511         2.992086         1.051264
 H         1.865354         3.937035         0.458112
 H         0.607086         3.168496        -0.668985
 H         3.818983         1.947465         1.098019
 H         2.508031         1.109601         2.128459
 H         3.045806        -0.962217        -1.370147
 H         3.225470         1.806215        -2.088207
 H         0.553730        -0.621760         1.178808
 H        -0.830494         0.551792         0.390646
 H        -0.414109        -0.814236        -0.475745
