19
Iteration:   874
 C         1.305732         3.044758         0.092779
 C         1.945208         1.697418         0.116880
 C         2.977050         1.132568         1.086558
 O         3.713542         0.123651         0.364624
 C         2.849143        -0.003906        -0.770798
 C         2.486566         1.367243        -1.341096
 O         1.054342         0.975580        -1.783794
 C         1.279947         0.436861        -0.361989
 C         0.063716        -0.190169         0.280163
 H         0.659718         3.262682         0.934202
 H         2.137511         3.804453         0.206322
 H         0.749534         3.112145        -0.940974
 H         3.598481         1.941826         1.519153
 H         2.422669         0.604504         1.849276
 H         3.108959        -0.798589        -1.328355
 H         2.936964         1.969412        -2.208178
 H         0.276170        -0.882534         0.997077
 H        -0.546631         0.639946         0.699233
 H        -0.432496        -0.876525        -0.431838
