19
Iteration:  2989charge 0 multiplicity 1
 C         1.150457         3.008313         0.196668
 C         2.055602         1.830435         0.003551
 C         3.112522         1.340887         1.073988
 O         3.494660         0.005206         0.476583
 C         2.803856        -0.065363        -0.751820
 C         2.614746         1.325297        -1.377662
 O         1.185898         0.917637        -1.853834
 C         1.211387         0.530001        -0.468218
 C         0.057208        -0.226351         0.305838
 H         0.747745         2.892655         1.242421
 H         1.576898         4.050975         0.202741
 H         0.351972         2.877597        -0.451669
 H         4.042964         2.027660         1.027859
 H         2.618170         1.237030         2.057532
 H         3.010545        -1.043343        -1.323928
 H         3.288022         1.857041        -2.065780
 H         0.674367        -0.728148         1.065210
 H        -0.757452         0.432018         0.589632
 H        -0.428941        -1.105963        -0.281753
