19
Iteration:   925
 C         1.320545         3.058703         0.283462
 C         2.028296         1.816608        -0.055428
 C         3.098192         1.401503         0.966784
 O         3.413119        -0.005107         0.580345
 C         2.742367        -0.084235        -0.710126
 C         2.492859         1.355963        -1.473690
 O         1.082998         0.948667        -1.772693
 C         1.297577         0.533139        -0.422491
 C         0.189636        -0.346025         0.165162
 H         0.971293         2.883478         1.372044
 H         2.018527         3.855450         0.356413
 H         0.546173         3.297504        -0.339850
 H         3.910056         2.068112         0.807251
 H         2.887763         1.359480         2.099048
 H         2.918286        -1.102792        -1.259563
 H         3.045106         1.877294        -2.201924
 H         0.559493        -1.275508         0.891994
 H        -0.554139         0.214529         0.760178
 H        -0.201176        -0.918781        -0.633488
