19
Iteration:  1202
 C         1.186192         2.972256         0.246268
 C         1.971869         1.726824         0.034950
 C         3.089919         1.349971         1.002028
 O         3.481324         0.045940         0.475761
 C         2.686874        -0.046125        -0.720404
 C         2.586460         1.325573        -1.465474
 O         1.218346         0.972975        -1.908154
 C         1.262147         0.451698        -0.431329
 C         0.181903        -0.204034         0.362121
 H         0.462141         2.872036         1.036764
 H         1.796150         3.872976         0.552945
 H         0.581851         3.096901        -0.743039
 H         3.967155         1.958259         0.942165
 H         2.776705         1.413396         2.124055
 H         2.758501        -0.932099        -1.246377
 H         3.260247         1.969573        -2.186362
 H         0.547252        -0.493932         1.359756
 H        -0.709769         0.493574         0.468297
 H        -0.137737        -1.287497         0.083405
