19
Iteration:  1986charge 0 multiplicity 1
 C         1.300787         3.128047         0.099392
 C         2.024906         1.776411         0.106386
 C         3.027436         1.300511         1.157714
 O         3.599149         0.131739         0.443939
 C         2.767174         0.027621        -0.734296
 C         2.534190         1.339623        -1.394619
 O         1.079276         0.870579        -1.784614
 C         1.247866         0.334733        -0.399866
 C         0.097270        -0.290802         0.155874
 H         0.850096         3.439513         1.114723
 H         2.031587         3.853321        -0.107362
 H         0.402367         3.216261        -0.677732
 H         3.980556         1.847641         1.571100
 H         2.483137         0.863171         1.998627
 H         2.923333        -0.820571        -1.283767
 H         3.119378         1.843546        -2.103538
 H         0.411732        -0.872079         1.117030
 H        -0.749004         0.381467         0.347915
 H        -0.221757        -1.002043        -0.593497
