19
Iteration:  2267
 C         1.168892         3.055494         0.149268
 C         1.982413         1.754517         0.052483
 C         3.037611         1.279644         1.103943
 O         3.727333         0.115090         0.350923
 C         2.736700        -0.132908        -0.674118
 C         2.504190         1.343216        -1.355297
 O         1.183365         0.913874        -1.866447
 C         1.271638         0.370588        -0.399802
 C         0.047388        -0.128672         0.293472
 H         0.547179         3.064784         1.094399
 H         1.875633         3.917253         0.190147
 H         0.459454         3.190249        -0.559306
 H         3.785079         1.968747         1.508038
 H         2.480214         0.858089         2.025288
 H         3.053512        -0.890192        -1.360374
 H         3.231662         1.836955        -1.981419
 H         0.130878        -0.495224         1.338644
 H        -0.763145         0.675628         0.193055
 H        -0.267478        -0.914076        -0.426864
