19
Iteration:  4455charge 0 multiplicity 1
 C         1.239563         2.961250         0.259957
 C         1.982066         1.711143         0.070642
 C         2.997394         1.266954         1.072837
 O         3.625047         0.036131         0.442931
 C         2.791943        -0.031871        -0.656949
 C         2.508680         1.378266        -1.372622
 O         1.221305         1.001942        -1.836848
 C         1.218858         0.475950        -0.465653
 C         0.046132        -0.219029         0.162703
 H         0.606585         2.962474         1.182820
 H         1.809538         3.916946         0.218780
 H         0.623780         3.097055        -0.704289
 H         3.855338         1.903607         1.162581
 H         2.526385         1.046259         2.014953
 H         3.088686        -0.859017        -1.274950
 H         3.098564         1.951126        -2.129303
 H         0.440849        -0.493124         1.182545
 H        -0.742164         0.550971         0.076917
 H        -0.179819        -1.018008        -0.458660
