19
Iteration:  4065
 C         1.098731         2.947294         0.311451
 C         2.078815         1.749155         0.025930
 C         3.104055         1.262444         0.968538
 O         3.586567         0.047326         0.497673
 C         2.714264        -0.025034        -0.679563
 C         2.578234         1.366773        -1.397304
 O         1.175045         0.972738        -1.831555
 C         1.309906         0.403130        -0.425468
 C         0.063145        -0.130478         0.175526
 H         0.555431         2.845434         1.217506
 H         1.628162         4.006814         0.099308
 H         0.348779         2.933768        -0.596349
 H         3.959487         2.026227         1.046082
 H         2.782131         0.966669         2.000028
 H         2.765273        -0.997733        -1.165756
 H         3.171340         1.896086        -2.118442
 H         0.320940        -0.537569         1.191787
 H        -0.733823         0.665371         0.250420
 H        -0.261415        -0.825814        -0.512183
