19
Iteration:  2994charge 0 multiplicity 1
 C         1.124265         3.010860         0.223430
 C         2.063206         1.842040         0.030772
 C         3.115187         1.354454         1.027015
 O         3.488139         0.015950         0.495525
 C         2.740841        -0.060759        -0.750033
 C         2.607014         1.308755        -1.385967
 O         1.239942         0.966692        -1.863556
 C         1.220110         0.455745        -0.487709
 C         0.068247        -0.244186         0.320836
 H         0.703847         2.961149         1.310325
 H         1.677718         3.930196         0.139197
 H         0.287911         2.924695        -0.621654
 H         3.975510         1.956474         0.950192
 H         2.713713         1.228941         2.069964
 H         3.047473        -0.920561        -1.381746
 H         3.339916         1.675734        -2.140663
 H         0.549353        -0.704239         1.205271
 H        -0.722183         0.439217         0.720011
 H        -0.406027        -1.033981        -0.287302
