19
Iteration:  1067charge 0 multiplicity 1
 C         1.254234         3.028933         0.278556
 C         2.018911         1.779335        -0.026637
 C         3.099879         1.390553         0.937700
 O         3.454643         0.005775         0.546177
 C         2.753705        -0.064181        -0.739150
 C         2.501546         1.346157        -1.422260
 O         1.152819         0.973964        -1.869695
 C         1.271392         0.454907        -0.422487
 C         0.145413        -0.311562         0.296124
 H         0.616825         2.904535         1.268188
 H         1.903597         3.895837         0.357250
 H         0.575806         3.348495        -0.508024
 H         3.972835         2.073352         0.904488
 H         2.856526         1.269109         1.995574
 H         2.970442        -1.067502        -1.307700
 H         3.188111         1.927488        -1.974321
 H         0.480671        -0.468312         1.362343
 H        -0.748077         0.329687         0.346323
 H        -0.000489        -1.199356        -0.275527
