19
Iteration:  3065
 C         1.308534         3.137582         0.252064
 C         2.010371         1.762657        -0.006606
 C         3.013868         1.316427         1.064486
 O         3.660391         0.116956         0.407228
 C         2.685386        -0.111648        -0.657618
 C         2.486765         1.302937        -1.352565
 O         1.156583         0.874046        -1.777461
 C         1.234055         0.453909        -0.358199
 C         0.068710        -0.256290         0.121407
 H         0.672580         3.163463         1.114420
 H         2.118371         3.965193         0.311027
 H         0.793050         3.397526        -0.635555
 H         3.810653         2.115593         1.237335
 H         2.455476         1.142895         1.977757
 H         2.919391        -1.010031        -1.404720
 H         3.015120         1.794954        -2.177568
 H         0.135043        -0.648427         1.185920
 H        -0.930743         0.216633         0.024799
 H         0.330408        -1.082001        -0.643260
