19
Iteration:  1964
 C         1.252919         3.067436         0.207438
 C         1.944738         1.764166         0.024497
 C         2.993432         1.284705         0.958501
 O         3.565064         0.098614         0.466690
 C         2.726095        -0.102891        -0.652307
 C         2.540754         1.358013        -1.365056
 O         1.246299         0.978732        -1.861015
 C         1.236176         0.411859        -0.414734
 C         0.109436        -0.265211         0.263322
 H         0.914430         3.331872         1.269224
 H         1.839308         3.889258        -0.096965
 H         0.303121         2.899370        -0.451212
 H         3.763751         2.167084         1.031186
 H         2.613662         1.095081         1.961421
 H         3.013384        -0.919866        -1.206333
 H         3.277978         1.774609        -1.975898
 H         0.599505        -0.731888         1.223894
 H        -0.820516         0.305910         0.523874
 H        -0.046868        -1.083575        -0.414397
