19
Iteration:  4210
 C         1.172659         3.012048         0.270667
 C         1.988313         1.765883         0.065776
 C         3.101838         1.265252         0.944560
 O         3.491302        -0.021660         0.527066
 C         2.723466         0.002323        -0.673785
 C         2.537489         1.411098        -1.341913
 O         1.233570         0.983394        -1.897564
 C         1.348728         0.406938        -0.442846
 C         0.076939        -0.241305         0.180738
 H         0.604331         3.102615         1.299431
 H         1.915388         3.832552        -0.007286
 H         0.301938         3.011907        -0.379183
 H         3.894923         2.068323         0.874767
 H         2.898789         1.232889         2.037247
 H         3.022681        -0.871843        -1.255499
 H         3.082743         2.167010        -2.083480
 H         0.462883        -0.566817         1.073626
 H        -0.621249         0.499823         0.470976
 H        -0.470139        -1.154626        -0.324002
