19
Iteration:  3612charge 0 multiplicity 1
 C         1.363398         3.081130         0.185079
 C         1.949409         1.767824         0.053041
 C         2.983333         1.258252         1.136114
 O         3.519001         0.096347         0.376618
 C         2.812493         0.012882        -0.718845
 C         2.539756         1.377601        -1.358579
 O         1.160777         0.954953        -1.826192
 C         1.256675         0.389448        -0.462443
 C         0.041541        -0.366072         0.247127
 H         1.009332         3.378524         1.185015
 H         2.378837         3.795777         0.084068
 H         0.721027         3.385282        -0.591252
 H         3.823774         1.883766         1.397610
 H         2.452000         0.906165         2.022147
 H         3.059348        -0.791371        -1.468995
 H         3.216507         2.055798        -1.968758
 H         0.477423        -0.533867         1.198924
 H        -0.836576         0.305521         0.438341
 H        -0.459894        -1.279908        -0.268290
