19
Iteration:  2940
 C         1.343101         3.089975         0.211923
 C         1.962898         1.753685         0.028666
 C         3.057309         1.288956         1.029940
 O         3.649244         0.166239         0.425468
 C         2.776733        -0.010003        -0.643925
 C         2.561838         1.272579        -1.361060
 O         1.128543         0.901626        -1.813806
 C         1.192448         0.394134        -0.469446
 C        -0.031386        -0.283457         0.223166
 H         0.780002         3.090772         1.107776
 H         2.110676         3.795447         0.344176
 H         0.616606         3.358508        -0.641573
 H         3.738884         2.065642         1.220151
 H         2.661837         0.962526         1.993726
 H         3.126667        -0.868958        -1.262499
 H         3.123129         2.074701        -1.911476
 H         0.263142        -0.655264         1.175968
 H        -0.869424         0.395819         0.045377
 H        -0.268514        -1.195381        -0.273313
