19
Iteration:  3043
 C         1.256002         3.117247         0.243058
 C         2.020700         1.802375         0.009555
 C         3.145416         1.329668         1.036463
 O         3.478810         0.052450         0.478437
 C         2.749895         0.033875        -0.679078
 C         2.533256         1.314368        -1.437054
 O         1.153822         0.891942        -1.790754
 C         1.273915         0.402335        -0.398490
 C         0.075728        -0.318362         0.149066
 H         0.611338         2.891175         1.054192
 H         1.851217         4.076895         0.382899
 H         0.698953         3.211108        -0.643581
 H         4.094585         1.943439         1.228904
 H         2.646881         1.169765         2.001310
 H         2.948593        -1.002038        -1.168579
 H         3.175043         1.740951        -2.218679
 H         0.233923        -0.512437         1.249258
 H        -0.615240         0.502774         0.398865
 H        -0.345718        -1.130772        -0.552061
