19
Iteration:   580charge 0 multiplicity 1
 C         1.334954         3.005628         0.200332
 C         2.007359         1.724754         0.065444
 C         2.943150         1.114348         1.071341
 O         3.662429         0.164719         0.339097
 C         2.699092        -0.039427        -0.718910
 C         2.507395         1.354044        -1.368971
 O         1.168940         1.076685        -1.837529
 C         1.227926         0.424924        -0.427754
 C         0.089518        -0.252677         0.300731
 H         0.762559         3.047302         1.112458
 H         2.126944         3.858338         0.133704
 H         0.683103         3.133136        -0.736362
 H         3.579574         1.920520         1.495286
 H         2.488788         0.559976         2.029065
 H         2.909511        -0.994989        -1.345532
 H         3.130848         2.087758        -1.972496
 H         0.300008        -0.075105         1.409459
 H        -0.924065         0.152636         0.107106
 H         0.013273        -1.343712         0.086427
