19
Iteration:  3250
 C         1.313141         3.066093         0.242656
 C         2.036804         1.751046         0.013699
 C         3.095580         1.382602         1.041478
 O         3.529068         0.069541         0.505085
 C         2.748510        -0.057189        -0.691312
 C         2.486249         1.311953        -1.387769
 O         1.185719         0.975724        -1.791983
 C         1.201231         0.440639        -0.443987
 C         0.051943        -0.344875         0.119028
 H         0.850927         3.093364         1.182734
 H         2.076964         3.947037         0.162566
 H         0.586231         3.261896        -0.493298
 H         4.030541         1.935059         1.216949
 H         2.455359         1.228034         1.963095
 H         2.990957        -0.890844        -1.515727
 H         3.205483         1.894183        -1.975928
 H         0.205855        -0.654942         1.188330
 H        -0.811765         0.329835         0.211468
 H        -0.147820        -1.290117        -0.256937
