19
Iteration:  2598
 C         1.228680         3.038343         0.259853
 C         2.008278         1.741675         0.000100
 C         3.116345         1.392792         0.929181
 O         3.439965         0.024554         0.555081
 C         2.741119        -0.080672        -0.675554
 C         2.533305         1.331308        -1.424305
 O         1.167486         0.967738        -1.778224
 C         1.312552         0.449247        -0.430997
 C         0.111434        -0.255605         0.181189
 H         0.697952         2.922048         1.265817
 H         1.876243         3.873709         0.393286
 H         0.506808         3.202554        -0.614264
 H         3.916686         2.005306         0.620141
 H         3.030067         1.323818         2.018797
 H         2.994774        -0.966896        -1.383087
 H         3.109540         1.938905        -2.127270
 H         0.539163        -0.745635         1.032900
 H        -0.661566         0.316444         0.604574
 H        -0.272280        -0.972134        -0.492301
