19
Iteration:   613charge 0 multiplicity 1
 C         1.281809         3.074744         0.289967
 C         2.024735         1.757613         0.107181
 C         3.115156         1.216786         1.095299
 O         3.666260         0.100390         0.377974
 C         2.749178         0.007815        -0.712875
 C         2.439782         1.280320        -1.418177
 O         1.110362         0.931217        -1.777764
 C         1.293884         0.427352        -0.369838
 C        -0.005786        -0.206619         0.104201
 H         0.648385         3.144916         1.142827
 H         1.979790         3.987214         0.267834
 H         0.599552         3.110241        -0.638919
 H         3.925491         1.935635         1.188393
 H         2.780528         0.870378         2.095998
 H         2.948839        -0.871855        -1.368678
 H         2.891298         1.960159        -2.187112
 H         0.086315        -0.411062         1.172375
 H        -0.828866         0.456240        -0.232508
 H        -0.156652        -1.203829        -0.371629
