19
Iteration:  4097
 C         1.164985         2.967636         0.370594
 C         2.097516         1.787895        -0.019086
 C         3.170766         1.394187         0.950758
 O         3.442352         0.025892         0.542478
 C         2.715249        -0.040898        -0.681213
 C         2.586089         1.315453        -1.427671
 O         1.188926         0.993825        -1.816651
 C         1.231877         0.433641        -0.465791
 C         0.079915        -0.256075         0.138431
 H         0.528985         2.693540         1.197535
 H         1.849463         3.864897         0.756226
 H         0.530800         3.202938        -0.573660
 H         3.969814         2.159415         0.800399
 H         2.964305         1.393511         2.047065
 H         2.820346        -1.019360        -1.182942
 H         3.232857         1.772249        -2.123656
 H         0.422933        -0.661564         1.158393
 H        -0.862609         0.348787         0.192359
 H        -0.034390        -1.109917        -0.459545
