19
Iteration:   404
 C         1.180478         3.060769         0.290474
 C         2.050778         1.849066        -0.010071
 C         3.120587         1.266922         1.024770
 O         3.335097        -0.087040         0.537793
 C         2.708130        -0.020311        -0.731393
 C         2.547104         1.445527        -1.425477
 O         1.142953         0.947895        -1.847817
 C         1.316542         0.458984        -0.467582
 C         0.307766        -0.256460         0.238806
 H         0.595141         2.880772         1.247595
 H         1.847317         4.020178         0.403601
 H         0.463174         3.219869        -0.489914
 H         3.943143         1.892243         1.014955
 H         2.664962         1.111560         2.091117
 H         2.904286        -0.943899        -1.428382
 H         3.075429         1.968640        -2.212768
 H         0.815605        -0.668958         1.240032
 H        -0.620953         0.363119         0.294166
 H        -0.037674        -1.092237        -0.416721
