19
Iteration:   111charge 0 multiplicity 1
 C         1.017001         2.931651         0.239020
 C         2.064284         1.845163        -0.034575
 C         3.226090         1.363330         0.929033
 O         3.327358        -0.042591         0.600090
 C         2.697508        -0.066885        -0.621827
 C         2.602786         1.367508        -1.397965
 O         1.223616         1.010053        -1.849334
 C         1.298656         0.503983        -0.493168
 C         0.239327        -0.262579         0.222850
 H         0.782695         2.957407         1.316296
 H         1.311713         3.979545        -0.089269
 H         0.179122         2.664049        -0.297354
 H         4.193252         1.850532         0.726326
 H         2.989022         1.465665         1.912977
 H         2.768478        -0.992165        -1.134871
 H         3.272211         1.929267        -2.089053
 H         0.543047        -0.461943         1.173909
 H        -0.612275         0.351324         0.400482
 H         0.087216        -1.226948        -0.233030
