19
Iteration:   297charge 0 multiplicity 1
 C         1.183810         2.957703         0.246122
 C         1.926651         1.672437        -0.002758
 C         2.956583         1.221098         1.058474
 O         3.662140         0.109548         0.417913
 C         2.787493         0.014376        -0.735567
 C         2.558313         1.355111        -1.347756
 O         1.225437         0.937122        -1.851884
 C         1.269840         0.420744        -0.477455
 C         0.032562        -0.130298         0.281173
 H         1.060938         3.197439         1.287312
 H         1.948854         3.748023        -0.091025
 H         0.308593         3.132612        -0.292263
 H         3.859161         1.919618         1.258863
 H         2.459819         1.003946         1.977266
 H         3.149845        -0.926058        -1.290488
 H         3.223825         1.983370        -1.967471
 H         0.308090        -0.493451         1.241509
 H        -0.544289         0.727849         0.586056
 H        -0.474682        -0.996249        -0.222467
