19
Iteration:  2676
 C         1.290309         3.071051         0.232273
 C         2.006116         1.746313         0.016269
 C         3.039742         1.215535         1.091535
 O         3.629555         0.127856         0.421185
 C         2.853983         0.028835        -0.723294
 C         2.472368         1.336319        -1.414103
 O         1.163951         0.896731        -1.795099
 C         1.204696         0.397491        -0.472339
 C        -0.004276        -0.200689         0.264982
 H         0.716342         3.177419         1.148385
 H         1.962614         3.845365         0.070542
 H         0.600021         3.152108        -0.682670
 H         3.861025         1.880403         1.400243
 H         2.575162         0.835145         2.027429
 H         3.147383        -0.921610        -1.325033
 H         3.081712         1.838409        -2.215912
 H         0.284248        -0.384698         1.246166
 H        -0.843149         0.446989         0.244196
 H        -0.351853        -1.219104        -0.058722
