19
Iteration:  3180
 C         1.194767         2.972570         0.258738
 C         1.983733         1.744373         0.084698
 C         3.089838         1.340064         1.058487
 O         3.510205         0.038471         0.501738
 C         2.773096        -0.027475        -0.736345
 C         2.506086         1.290196        -1.378778
 O         1.193209         0.952438        -1.880426
 C         1.273833         0.413563        -0.454118
 C         0.131587        -0.154617         0.173740
 H         0.508433         3.080673         1.106458
 H         1.857921         3.765005         0.347578
 H         0.743335         3.239123        -0.747790
 H         3.945550         2.032105         0.968865
 H         2.752046         1.236437         2.162870
 H         2.972246        -0.899433        -1.234945
 H         3.095159         1.826448        -2.139316
 H         0.439033        -0.702507         1.093178
 H        -0.455232         0.689083         0.602742
 H        -0.467389        -0.889111        -0.361475
