19
Iteration:  2954charge 0 multiplicity 1
 C         1.283513         3.111713         0.238669
 C         2.012454         1.727682         0.059059
 C         2.972340         1.352322         1.117658
 O         3.578129         0.152999         0.387530
 C         2.811184        -0.109183        -0.777003
 C         2.501157         1.301523        -1.426807
 O         1.168734         0.919164        -1.775711
 C         1.311322         0.333369        -0.380790
 C         0.040341        -0.245681         0.174086
 H         0.746864         3.170963         1.111315
 H         1.992634         4.005434         0.177542
 H         0.615778         3.306076        -0.556034
 H         3.819882         2.035876         1.400498
 H         2.514710         1.095078         2.064263
 H         3.021970        -0.982380        -1.255026
 H         3.153046         1.668272        -2.213373
 H         0.143899        -0.494901         1.285288
 H        -0.676621         0.592497         0.320464
 H        -0.384920        -1.034679        -0.367606
