19
Iteration:  1831
 C         1.303195         3.120491         0.154932
 C         2.001949         1.786428        -0.033973
 C         2.986164         1.316343         1.107395
 O         3.587196         0.067207         0.513747
 C         2.735363        -0.031512        -0.670697
 C         2.486576         1.363194        -1.374788
 O         1.117783         0.912718        -1.837544
 C         1.260904         0.407029        -0.428069
 C         0.150470        -0.326222         0.199986
 H         1.136664         3.382155         1.246023
 H         1.940661         3.901615        -0.132022
 H         0.424316         3.251200        -0.410228
 H         3.922229         1.935410         1.175059
 H         2.527193         1.138665         2.050743
 H         2.989675        -0.988033        -1.306856
 H         3.077137         1.912386        -2.063683
 H         0.397576        -0.837083         1.126600
 H        -0.688722         0.382423         0.361707
 H        -0.023035        -1.206705        -0.505179
