19
Iteration:  1063
 C         1.271810         3.034404         0.286948
 C         1.991156         1.759650         0.003100
 C         3.088101         1.366621         0.981027
 O         3.470988         0.038095         0.509184
 C         2.732482        -0.043250        -0.748047
 C         2.497141         1.315136        -1.437921
 O         1.177240         0.971044        -1.890145
 C         1.254625         0.423205        -0.426527
 C         0.157377        -0.275520         0.313940
 H         0.620115         2.986874         1.190491
 H         1.899540         3.964513         0.431913
 H         0.610160         3.194027        -0.579320
 H         4.005302         2.071275         0.948519
 H         2.784006         1.299742         2.014394
 H         2.916083        -1.038242        -1.321529
 H         3.208048         1.997779        -1.945069
 H         0.449556        -0.489247         1.344359
 H        -0.707519         0.349795         0.288596
 H         0.008124        -1.266794        -0.134136
