19
Iteration:  1647
 C         1.178669         3.024920         0.257151
 C         2.033163         1.797833        -0.037860
 C         3.195743         1.391193         0.919612
 O         3.335038         0.017971         0.590065
 C         2.614712        -0.057382        -0.636574
 C         2.570637         1.355500        -1.372496
 O         1.239213         1.023830        -1.941118
 C         1.274161         0.438151        -0.417192
 C         0.206323        -0.342391         0.238647
 H         1.165616         2.976491         1.358622
 H         1.603976         3.928433        -0.111701
 H         0.091468         3.059983        -0.254333
 H         4.044886         1.936917         0.602909
 H         2.973815         1.591893         2.044932
 H         2.742894        -1.127907        -1.119780
 H         3.407284         1.782055        -1.901813
 H         0.542825        -0.634959         1.213771
 H        -0.772392         0.116753         0.269166
 H         0.205479        -1.407020        -0.085279
