19
Iteration:  1776
 C         1.160121         3.041943         0.236854
 C         2.033573         1.774528        -0.010683
 C         3.130957         1.397712         0.947218
 O         3.398154        -0.019453         0.616320
 C         2.778285        -0.029808        -0.685207
 C         2.546784         1.361936        -1.483835
 O         1.194943         0.912372        -1.807076
 C         1.329703         0.483363        -0.427850
 C         0.139683        -0.232062         0.192392
 H         0.668841         2.974395         1.303277
 H         1.667613         3.944881         0.195596
 H         0.332875         2.953390        -0.445997
 H         4.130027         1.886554         0.889396
 H         2.827946         1.351472         1.981541
 H         2.959494        -1.157074        -1.133874
 H         2.951471         1.883573        -2.294694
 H         0.683461        -0.611728         1.053503
 H        -0.822480         0.193289         0.619436
 H        -0.237089        -1.094392        -0.522651
