19
Iteration:  4952
 C         1.173189         2.932456         0.226098
 C         2.027514         1.773301         0.007748
 C         3.029069         1.270520         1.046931
 O         3.649771         0.057051         0.419505
 C         2.747432        -0.102213        -0.616825
 C         2.563438         1.274312        -1.364645
 O         1.152372         1.070480        -1.853315
 C         1.292757         0.518009        -0.432617
 C         0.090901        -0.195546         0.178720
 H         0.428589         2.781704         1.069964
 H         1.701631         3.928726         0.360562
 H         0.473393         3.180440        -0.546717
 H         3.652069         2.068389         1.390862
 H         2.572122         0.872066         2.023872
 H         2.757924        -1.053506        -1.119695
 H         3.218911         1.869870        -2.087745
 H         0.491037        -0.780050         1.091270
 H        -0.696576         0.508015         0.533668
 H        -0.433872        -0.881520        -0.507482
