19
Iteration:  2901charge 0 multiplicity 1
 C         1.243866         3.141149         0.249140
 C         2.021848         1.802165         0.008516
 C         3.151141         1.326426         0.986490
 O         3.429937         0.097553         0.494323
 C         2.734190        -0.055923        -0.696178
 C         2.599305         1.316104        -1.401746
 O         1.093027         0.905412        -1.761349
 C         1.282178         0.449103        -0.414595
 C         0.144841        -0.379327         0.157526
 H         0.638874         3.079254         1.243012
 H         2.008034         4.032868         0.409579
 H         0.580107         3.410044        -0.533992
 H         4.106033         1.986755         0.853856
 H         2.811250         1.179787         2.044573
 H         3.008709        -0.921436        -1.202944
 H         3.298284         1.606080        -2.151223
 H        -0.067066        -0.452893         1.278383
 H        -0.720049         0.299994        -0.097212
 H        -0.083029        -1.284511        -0.420912
