19
Iteration:  1923charge 0 multiplicity 1
 C         1.095859         2.974696         0.356303
 C         2.069139         1.807352        -0.067450
 C         3.171848         1.349118         0.917319
 O         3.403043        -0.000629         0.594149
 C         2.761083        -0.064644        -0.628007
 C         2.500274         1.363509        -1.414954
 O         1.172593         0.880381        -1.850017
 C         1.380263         0.478616        -0.485556
 C         0.176919        -0.165747         0.165763
 H         0.545467         2.871714         1.217844
 H         1.601482         3.989304         0.473173
 H         0.493859         3.041590        -0.633189
 H         4.116196         1.780228         0.874701
 H         2.637990         1.621000         1.900742
 H         2.944177        -0.964988        -1.129764
 H         2.946898         1.923698        -2.283248
 H         0.414588        -0.442377         1.301668
 H        -0.682839         0.528630         0.303132
 H        -0.010807        -1.163470        -0.234094
