19
Iteration:   289
 C         1.172668         2.936086         0.264304
 C         1.945369         1.698958        -0.049516
 C         2.998017         1.268807         1.011348
 O         3.584642         0.077226         0.446010
 C         2.795242        -0.023776        -0.705600
 C         2.612491         1.339635        -1.348639
 O         1.236776         1.007210        -1.902566
 C         1.238447         0.407844        -0.426557
 C         0.081309        -0.141704         0.326904
 H         0.958173         3.044193         1.320717
 H         1.834785         3.733886        -0.046582
 H         0.194085         3.075939        -0.306899
 H         3.694324         2.166864         1.191658
 H         2.569245         0.970003         1.946151
 H         2.901375        -0.973052        -1.402567
 H         3.339037         1.992064        -2.004827
 H         0.506873        -0.591801         1.163755
 H        -0.713400         0.534197         0.626068
 H        -0.462907        -0.952977        -0.237636
