19
Iteration:  4199charge 0 multiplicity 1
 C         1.204680         3.027899         0.207431
 C         2.008365         1.774379         0.052780
 C         3.088829         1.293903         1.053398
 O         3.532901         0.019712         0.488837
 C         2.702046        -0.066322        -0.768455
 C         2.510215         1.430295        -1.312575
 O         1.247687         0.987211        -1.854470
 C         1.241676         0.389898        -0.419768
 C         0.124989        -0.266194         0.213157
 H         0.919080         3.202250         1.318260
 H         1.704642         4.012357        -0.031557
 H         0.398049         2.970987        -0.521177
 H         4.005685         1.933247         1.192207
 H         2.510174         1.117873         1.986647
 H         2.865890        -0.889894        -1.463884
 H         3.213476         2.036731        -2.037334
 H         0.341495        -0.712391         1.117778
 H        -0.647934         0.467403         0.314431
 H        -0.284827        -1.076690        -0.517333
