19
Iteration:  2066
 C         1.131763         2.966685         0.313159
 C         2.022868         1.819416        -0.067404
 C         3.100277         1.339197         0.910959
 O         3.430076         0.010592         0.599225
 C         2.766978        -0.061809        -0.660989
 C         2.576850         1.366106        -1.430080
 O         1.148196         0.901458        -1.857472
 C         1.274819         0.493056        -0.426897
 C         0.182781        -0.230773         0.240419
 H         0.678851         2.825771         1.275792
 H         1.886970         3.891637         0.515368
 H         0.438016         3.277852        -0.568847
 H         4.058982         1.919035         0.772717
 H         2.846911         1.510711         2.041388
 H         3.140259        -0.871127        -1.419347
 H         3.273038         1.829778        -2.271799
 H         0.393277        -0.567972         1.388315
 H        -0.596275         0.615962         0.139972
 H         0.025458        -1.151015        -0.470824
