19
Iteration:  2383
 C         1.342024         3.112000         0.135325
 C         2.002685         1.739573         0.041526
 C         2.998047         1.300100         1.088466
 O         3.550373         0.079058         0.448591
 C         2.747206         0.010252        -0.713242
 C         2.513112         1.276384        -1.399873
 O         1.063081         0.957248        -1.783837
 C         1.283706         0.430313        -0.415805
 C         0.185250        -0.313197         0.211947
 H         0.747003         3.165485         1.000857
 H         2.039737         3.976791         0.129961
 H         0.463688         3.112488        -0.575218
 H         3.855168         2.014840         1.262777
 H         2.533325         1.098289         2.037013
 H         3.026226        -0.863084        -1.271955
 H         3.258450         1.804300        -1.997275
 H         0.441452        -0.711504         1.147629
 H        -0.566129         0.447830         0.458647
 H        -0.398915        -1.111173        -0.391775
