19
Iteration:   741
 C         1.331438         3.086648         0.126125
 C         1.969702         1.701922         0.079779
 C         2.984174         1.135094         1.131349
 O         3.702137         0.162074         0.243185
 C         2.715874        -0.000274        -0.749494
 C         2.557319         1.363760        -1.301836
 O         1.179609         0.981363        -1.750524
 C         1.165150         0.459756        -0.379794
 C         0.010396        -0.303648         0.246536
 H         0.560242         3.324496         1.020847
 H         2.065462         3.887158         0.145028
 H         0.754961         3.238562        -0.717343
 H         3.800969         1.900593         1.440604
 H         2.467598         0.772922         2.074400
 H         2.967464        -0.983238        -1.374988
 H         3.292387         1.903290        -1.894482
 H         0.288208        -0.662687         1.341643
 H        -0.882402         0.288417         0.477583
 H        -0.146236        -1.099192        -0.415639
