19
Iteration:  1734charge 0 multiplicity 1
 C         1.232343         3.011140         0.153771
 C         1.973312         1.706354         0.045530
 C         3.036680         1.292107         1.093362
 O         3.747238         0.219328         0.350755
 C         2.810196        -0.091019        -0.660498
 C         2.512818         1.263977        -1.367152
 O         1.237543         0.889847        -1.783532
 C         1.172512         0.448781        -0.422932
 C        -0.087977        -0.171538         0.221613
 H         0.341556         3.087087         0.906806
 H         1.865091         3.754352         0.613820
 H         0.864055         3.431001        -0.911085
 H         3.727885         2.112224         1.271830
 H         2.579725         0.832704         2.119825
 H         3.178940        -1.083321        -1.252243
 H         3.082168         1.873410        -1.989645
 H         0.248905        -0.539030         1.214040
 H        -0.915055         0.579089         0.352840
 H        -0.437150        -1.130480        -0.351894
