19
Iteration:  3145
 C         1.162446         3.000355         0.244802
 C         2.144472         1.851937         0.026130
 C         3.101225         1.362745         1.002882
 O         3.442277        -0.033517         0.518259
 C         2.682123        -0.007584        -0.672358
 C         2.509043         1.271063        -1.403361
 O         1.209994         1.017661        -1.887234
 C         1.300358         0.474757        -0.434840
 C         0.157481        -0.284431         0.223477
 H         0.698508         2.958183         1.290102
 H         1.663250         3.925278         0.153190
 H         0.369237         2.910100        -0.477754
 H         4.041150         1.969343         1.197442
 H         2.562812         1.291589         2.009909
 H         2.784083        -0.872070        -1.296992
 H         3.207404         1.598423        -2.171432
 H         0.619764        -0.511532         1.149010
 H        -0.690016         0.376403         0.386478
 H        -0.295012        -1.234938        -0.361333
