19
Iteration:    57
 C         1.360000         3.177034         0.185242
 C         1.902127         1.705211         0.026211
 C         2.958127         1.320320         1.126082
 O         3.745278         0.249432         0.411184
 C         2.762006        -0.037584        -0.717621
 C         2.535574         1.263183        -1.300775
 O         1.158604         0.845079        -1.869121
 C         1.196156         0.392227        -0.444466
 C        -0.016154        -0.351075         0.243056
 H         0.463663         3.206639         0.800007
 H         2.154935         3.855972         0.651013
 H         1.095350         3.575440        -0.700646
 H         3.585207         2.122956         1.305943
 H         2.538867         0.956174         2.032841
 H         2.921935        -0.865857        -1.304508
 H         3.312833         1.857626        -1.882102
 H         0.366071        -0.960852         0.915527
 H        -0.841197         0.252713         0.580059
 H        -0.348816        -0.964390        -0.668360
