19
Iteration:  3814charge 0 multiplicity 1
 C         1.369216         3.035892         0.277819
 C         2.029265         1.838991         0.004219
 C         3.125047         1.394213         0.963716
 O         3.430852        -0.012410         0.557634
 C         2.718209        -0.030279        -0.656913
 C         2.531756         1.356017        -1.452488
 O         1.137414         1.072467        -1.775642
 C         1.209487         0.468560        -0.439129
 C         0.120154        -0.459091         0.131100
 H         0.615576         2.790292         1.064240
 H         1.771288         3.885592         0.724570
 H         0.818593         3.259687        -0.722351
 H         3.980890         2.022842         0.875982
 H         2.908922         1.350456         2.004654
 H         2.815842        -1.068774        -1.150596
 H         3.244607         1.747991        -2.155082
 H         0.336893        -0.892898         1.179750
 H        -0.843909         0.120679         0.074697
 H         0.097941        -1.241040        -0.525993
