19
Iteration:   148charge 0 multiplicity 1
 C         1.190208         2.984488         0.254313
 C         1.957629         1.707473        -0.018620
 C         3.034923         1.304470         1.020850
 O         3.583833         0.086495         0.479924
 C         2.791299        -0.001830        -0.647689
 C         2.561935         1.358978        -1.376659
 O         1.219981         0.932143        -1.898720
 C         1.274858         0.412027        -0.484237
 C         0.061327        -0.192340         0.275596
 H         1.137472         3.189510         1.317915
 H         1.636388         3.834716        -0.210907
 H         0.084486         2.931163        -0.062111
 H         3.831729         1.990270         1.062134
 H         2.601390         1.006779         2.061456
 H         2.980360        -1.018306        -1.190906
 H         3.234457         2.086999        -1.975388
 H         0.382175        -0.233295         1.338592
 H        -0.844309         0.388117         0.049986
 H        -0.284363        -1.173850        -0.160104
