19
Iteration:  4554charge 0 multiplicity 1
 C         1.275205         3.061381         0.196590
 C         1.973992         1.755333         0.031756
 C         3.006992         1.275219         1.068662
 O         3.615627         0.021593         0.460922
 C         2.820191         0.028667        -0.658563
 C         2.520632         1.419100        -1.302942
 O         1.132556         0.944915        -1.822872
 C         1.279333         0.370775        -0.410500
 C        -0.000016        -0.308237         0.113406
 H         0.678502         3.168679         1.095051
 H         2.173584         3.776241         0.321909
 H         0.775849         3.544498        -0.731481
 H         3.838414         1.966180         1.187012
 H         2.852730         0.884028         2.096010
 H         3.053290        -0.701941        -1.346410
 H         3.056401         2.127196        -1.969774
 H         0.213083        -0.931675         1.059626
 H        -0.774916         0.490268         0.240113
 H        -0.273548        -0.839125        -0.800728
