19
Iteration:  2769
 C         1.239556         3.055102         0.252429
 C         2.016579         1.770125         0.093874
 C         3.161827         1.428914         1.009724
 O         3.513948         0.023664         0.445904
 C         2.719120        -0.004621        -0.645420
 C         2.534046         1.307551        -1.339466
 O         1.152440         0.881780        -1.913773
 C         1.245017         0.448248        -0.406664
 C         0.054965        -0.287043         0.201170
 H         0.584689         2.900060         1.171081
 H         1.942095         4.026968         0.233673
 H         0.664257         3.282541        -0.659196
 H         4.071988         2.111179         0.808268
 H         3.048535         1.431664         2.103463
 H         2.810576        -0.767406        -1.327670
 H         3.236535         1.776739        -1.982215
 H         0.416228        -1.001865         1.054128
 H        -0.866535         0.312784         0.463850
 H        -0.146030        -1.001713        -0.548950
