19
Iteration:  4820
 C         1.241157         3.057178         0.193383
 C         1.888563         1.665718         0.094163
 C         3.087598         1.279192         1.106319
 O         3.577170         0.062383         0.370761
 C         2.760332         0.063514        -0.667997
 C         2.506935         1.319746        -1.329830
 O         1.265595         1.020653        -1.883378
 C         1.260886         0.371313        -0.435906
 C         0.055847        -0.261936         0.213971
 H         0.563693         3.128610         1.013120
 H         2.064009         3.806823         0.370619
 H         0.658259         3.145379        -0.641506
 H         3.761872         2.123627         1.103275
 H         2.621225         0.991763         2.093611
 H         3.032121        -0.858100        -1.275651
 H         3.265207         1.750521        -1.943825
 H         0.235001        -0.524603         1.214562
 H        -0.743376         0.487372         0.265317
 H        -0.472110        -1.135603        -0.273550
