19
Iteration:  4080
 C         1.143741         2.903833         0.287675
 C         2.039328         1.812840         0.024523
 C         3.167056         1.443231         1.063788
 O         3.469684         0.005289         0.437125
 C         2.724920        -0.115679        -0.726711
 C         2.549531         1.269174        -1.407261
 O         1.203437         0.982533        -1.795828
 C         1.332834         0.521450        -0.405620
 C         0.086924        -0.180181         0.142752
 H         0.655610         2.625202         1.288458
 H         1.503928         3.808629         0.521244
 H         0.370378         3.036160        -0.389243
 H         4.179466         1.937700         0.997560
 H         2.662491         1.412129         2.053544
 H         3.089279        -0.922765        -1.349112
 H         3.270433         1.780632        -2.190991
 H         0.192588        -0.569205         1.120419
 H        -0.770122         0.489472         0.240720
 H        -0.371134        -1.076663        -0.486631
