19
Iteration:   334
 C         1.321777         3.089174         0.235825
 C         1.991276         1.768416         0.082278
 C         3.049670         1.233627         1.079408
 O         3.710660         0.151522         0.373437
 C         2.797068        -0.041388        -0.687862
 C         2.458356         1.380134        -1.403215
 O         1.127249         0.831633        -1.719871
 C         1.256991         0.443871        -0.324626
 C        -0.029103        -0.244475         0.051342
 H         0.839944         3.034761         1.237160
 H         2.043435         3.834767         0.281181
 H         0.479362         3.330450        -0.516920
 H         3.795266         1.926939         1.459683
 H         2.468811         0.853099         1.917785
 H         3.001047        -0.845675        -1.349365
 H         3.116359         1.874615        -2.183624
 H        -0.216443        -0.499804         1.058131
 H        -0.773508         0.441979        -0.347779
 H        -0.224144        -1.054191        -0.588531
