19
Iteration:  3398charge 0 multiplicity 1
 C         1.230996         2.990833         0.237454
 C         2.093806         1.784873         0.037567
 C         3.101324         1.372242         1.075271
 O         3.558030         0.021928         0.499753
 C         2.694572        -0.039072        -0.689283
 C         2.489445         1.275809        -1.451647
 O         1.184658         1.008253        -1.829775
 C         1.201335         0.468609        -0.383087
 C         0.074862        -0.262922         0.127585
 H         0.921041         2.889930         1.335189
 H         1.769706         3.884149         0.386804
 H         0.357900         3.176309        -0.557832
 H         3.998125         1.987950         0.886941
 H         2.899140         1.432976         2.115546
 H         3.084192        -0.955708        -1.235289
 H         3.268038         1.707130        -2.170944
 H         0.430772        -0.707962         1.068003
 H        -0.856959         0.269925         0.404021
 H        -0.310617        -1.069644        -0.580438
