19
Iteration:  2171
 C         1.309437         3.151207         0.245243
 C         1.936418         1.758082         0.008115
 C         3.096273         1.337316         1.006386
 O         3.536250         0.086734         0.493818
 C         2.749519        -0.016240        -0.616690
 C         2.548823         1.313353        -1.414584
 O         1.153749         0.927035        -1.803891
 C         1.210795         0.422136        -0.430260
 C         0.096065        -0.389570         0.173396
 H         0.663951         3.236021         1.203517
 H         2.085384         3.866835         0.228953
 H         0.487699         3.332747        -0.589257
 H         3.865245         2.121046         0.809515
 H         2.977007         1.301986         2.049142
 H         2.969185        -0.989338        -1.268790
 H         3.166412         1.790047        -2.210838
 H         0.385230        -0.764486         1.172210
 H        -0.788682         0.251318         0.268939
 H        -0.140537        -1.102726        -0.539515
