19
Iteration:  2081charge 0 multiplicity 1
 C         1.172069         2.971391         0.285714
 C         2.032952         1.726110         0.013996
 C         3.106633         1.405873         1.018689
 O         3.420397         0.024149         0.552469
 C         2.798031        -0.035848        -0.728032
 C         2.511885         1.317972        -1.463846
 O         1.161402         0.909383        -1.843218
 C         1.352476         0.409720        -0.482635
 C         0.191341        -0.129076         0.203354
 H         0.530903         2.803801         1.259944
 H         1.599431         3.986545         0.465699
 H         0.446281         3.004758        -0.434339
 H         3.934417         2.067346         0.948080
 H         2.800802         1.311039         2.039522
 H         2.914674        -0.981876        -1.150877
 H         3.052659         1.887619        -2.166319
 H         0.441841        -0.240947         1.188479
 H        -0.712694         0.514398         0.280336
 H        -0.218295        -1.106382        -0.131422
