19
Iteration:  2087
 C         1.133014         2.937883         0.291144
 C         2.052758         1.708470         0.012020
 C         3.119600         1.442115         1.051449
 O         3.445020         0.044919         0.500971
 C         2.788631        -0.096840        -0.722458
 C         2.505742         1.377251        -1.456822
 O         1.204888         0.912431        -1.842223
 C         1.306422         0.390879        -0.469777
 C         0.130856        -0.132044         0.211724
 H         0.620452         2.994092         1.210623
 H         1.767960         3.896995         0.394275
 H         0.393845         3.057746        -0.614504
 H         4.027679         2.136746         1.185100
 H         2.684388         1.235212         2.103265
 H         2.851156        -1.094797        -1.318401
 H         3.181883         1.864743        -2.264645
 H         0.531167        -0.199761         1.345677
 H        -0.685713         0.628925         0.298360
 H        -0.134337        -1.193737        -0.073573
