19
Iteration:  2403charge 0 multiplicity 1
 C         1.283007         3.059544         0.138881
 C         1.990174         1.753513         0.033579
 C         2.948214         1.273809         1.085661
 O         3.647622         0.118373         0.385538
 C         2.721365        -0.094469        -0.703007
 C         2.480427         1.404214        -1.389528
 O         1.201599         0.914549        -1.799831
 C         1.270382         0.446547        -0.397567
 C         0.077216        -0.222207         0.298422
 H         0.779526         3.259018         1.042295
 H         2.075149         3.682909         0.043166
 H         0.540522         3.239360        -0.760872
 H         3.870719         1.820313         1.405326
 H         2.536403         0.837283         1.975816
 H         2.919442        -1.120469        -1.271997
 H         3.134313         2.039395        -2.034233
 H         0.451655        -0.916135         1.085849
 H        -0.762963         0.379967         0.591054
 H        -0.297510        -1.014474        -0.428234
