19
Iteration:  3709charge 0 multiplicity 1
 C         1.167641         2.980885         0.327310
 C         2.059468         1.818343         0.042829
 C         3.132993         1.302922         1.050053
 O         3.489995        -0.044235         0.455332
 C         2.749990        -0.005759        -0.701768
 C         2.517139         1.378260        -1.411074
 O         1.247094         0.937917        -1.918209
 C         1.263989         0.429876        -0.402400
 C         0.051934        -0.185021         0.213210
 H         0.659537         2.860316         1.301146
 H         1.490239         4.006039         0.145109
 H         0.310711         2.906313        -0.328308
 H         4.038639         1.954026         0.762280
 H         2.910021         1.241454         2.189975
 H         3.054399        -0.936894        -1.288318
 H         3.216502         2.039269        -2.012814
 H         0.382346        -0.524890         1.173748
 H        -0.638625         0.685904         0.327359
 H        -0.450580        -0.988550        -0.467145
