19
Iteration:  2814charge 0 multiplicity 1
 C         1.254819         2.970867         0.185304
 C         1.989631         1.719843         0.005517
 C         3.023910         1.272696         1.131037
 O         3.606420         0.151259         0.441696
 C         2.757614         0.010598        -0.756693
 C         2.518584         1.286753        -1.416662
 O         1.094310         0.871323        -1.812761
 C         1.277489         0.459756        -0.369629
 C         0.126798        -0.164606         0.213301
 H         0.717939         2.880457         1.231347
 H         2.013154         3.852337         0.102556
 H         0.607663         3.228585        -0.569935
 H         3.755218         2.044111         1.485030
 H         2.501918         0.945659         2.070751
 H         3.081559        -0.801154        -1.428602
 H         3.223157         1.631123        -2.112529
 H         0.343263        -0.758235         1.158567
 H        -0.360722         0.792224         0.485371
 H        -0.400627        -0.668742        -0.575625
