19
Iteration:  2830
 C         1.224009         3.037789         0.200952
 C         2.018823         1.789308         0.025643
 C         3.008029         1.264414         1.068003
 O         3.618708         0.068570         0.439226
 C         2.777509        -0.062824        -0.695629
 C         2.498628         1.396581        -1.424682
 O         1.197417         0.906265        -1.849349
 C         1.297610         0.375469        -0.437158
 C         0.062718        -0.166243         0.301153
 H         0.716933         3.139824         1.116211
 H         1.795319         3.922345         0.112811
 H         0.439065         3.062331        -0.659945
 H         3.827435         1.932937         1.271686
 H         2.432367         0.957237         1.945009
 H         2.970110        -1.120944        -1.186492
 H         2.952949         2.130423        -2.191965
 H         0.392592        -0.646656         1.201846
 H        -0.695184         0.530410         0.668132
 H        -0.447701        -0.940096        -0.359800
