19
Iteration:   947
 C         1.265034         3.038320         0.397179
 C         2.088273         1.835463        -0.028106
 C         3.285172         1.423828         0.878695
 O         3.306970         0.038810         0.577313
 C         2.654117        -0.023236        -0.656217
 C         2.472124         1.340027        -1.440824
 O         1.148356         0.931751        -1.825354
 C         1.275321         0.403855        -0.471828
 C         0.169298        -0.339643         0.159135
 H         0.792204         2.982590         1.440799
 H         1.728946         3.987121         0.353028
 H         0.518950         3.048910        -0.317311
 H         4.225653         1.843667         0.589252
 H         3.158109         1.630784         2.016144
 H         2.900546        -0.978344        -1.253777
 H         3.201692         1.793191        -2.027739
 H         0.441499        -1.071499         1.068535
 H        -0.639778         0.365017         0.412070
 H        -0.053991        -1.091501        -0.550103
