19
Iteration:  4742charge 0 multiplicity 1
 C         1.230480         3.029689         0.294695
 C         1.910874         1.749459         0.016099
 C         3.072993         1.317715         0.969937
 O         3.524052         0.046052         0.504161
 C         2.706371        -0.033591        -0.729385
 C         2.588317         1.364363        -1.297197
 O         1.261429         0.963822        -1.843437
 C         1.220779         0.440401        -0.457712
 C         0.100071        -0.275456         0.140159
 H         0.743460         2.921422         1.214605
 H         2.077238         3.752847         0.246599
 H         0.559271         3.264273        -0.479918
 H         3.893545         2.018487         1.005105
 H         2.718702         1.417190         2.051456
 H         2.994410        -0.973007        -1.298150
 H         3.294774         1.900886        -1.817850
 H         0.491079        -0.650066         1.006378
 H        -0.710218         0.381243         0.430837
 H        -0.507478        -1.122162        -0.354423
