19
Iteration:  2992
 C         1.137976         3.011754         0.207220
 C         2.060412         1.842874         0.020611
 C         3.116791         1.349690         1.048546
 O         3.490785         0.010352         0.487449
 C         2.769579        -0.060269        -0.752881
 C         2.611449         1.315255        -1.381196
 O         1.217058         0.944502        -1.858975
 C         1.213048         0.490147        -0.482007
 C         0.063052        -0.234713         0.321465
 H         0.705542         2.927276         1.352725
 H         1.630194         3.964887         0.175069
 H         0.296882         2.889895        -0.571313
 H         4.009776         1.992259         0.963683
 H         2.645343         1.227939         2.097750
 H         3.051427        -1.030336        -1.396575
 H         3.336057         1.749700        -2.117107
 H         0.605206        -0.711309         1.127704
 H        -0.742715         0.434757         0.661179
 H        -0.447677        -1.116265        -0.314741
