19
Iteration:  4503charge 0 multiplicity 1
 C         1.246411         3.051161         0.321097
 C         2.030764         1.801574        -0.007284
 C         3.038836         1.318865         0.988826
 O         3.436467        -0.021033         0.611402
 C         2.696269        -0.080925        -0.751663
 C         2.551348         1.413655        -1.416826
 O         1.219815         1.020709        -1.868398
 C         1.247281         0.506994        -0.444708
 C         0.153642        -0.369983         0.165779
 H         0.962296         3.063114         1.363582
 H         1.819691         4.040319         0.120194
 H         0.453763         3.245949        -0.345440
 H         3.938726         2.032580         1.018932
 H         2.689849         1.104201         2.019643
 H         2.777386        -1.066756        -1.270925
 H         3.264727         1.993507        -1.971159
 H         0.664923        -0.595151         1.046433
 H        -0.848845         0.001226         0.173895
 H         0.278375        -1.327074        -0.486916
