19
Iteration:    52
 C         1.391759         3.152305         0.203498
 C         1.883071         1.702687         0.032060
 C         2.947867         1.307187         1.120439
 O         3.773772         0.255493         0.388407
 C         2.803328         0.023646        -0.702285
 C         2.520641         1.250280        -1.297341
 O         1.155225         0.814592        -1.894251
 C         1.145479         0.445566        -0.397320
 C        -0.027896        -0.361071         0.214206
 H         0.437668         3.291021         0.766614
 H         2.149159         3.775219         0.606596
 H         1.170373         3.621161        -0.882027
 H         3.658914         2.141170         1.547398
 H         2.456684         0.822675         2.039163
 H         3.038685        -0.948749        -1.283427
 H         3.222624         1.753856        -1.912668
 H         0.495569        -1.042063         1.066818
 H        -0.906903         0.270028         0.491719
 H        -0.472369        -0.871263        -0.611637
