19
Iteration:   566charge 0 multiplicity 1
 C         1.301320         3.056783         0.235196
 C         1.973856         1.681778         0.083789
 C         2.987951         1.205482         1.173252
 O         3.552164         0.022851         0.397859
 C         2.766575         0.023332        -0.816981
 C         2.488172         1.382175        -1.418024
 O         1.113261         1.021185        -1.874556
 C         1.282261         0.453000        -0.461283
 C         0.177975        -0.237809         0.304931
 H         0.670591         3.199365         1.144853
 H         2.034289         3.848784         0.238851
 H         0.668271         3.217594        -0.542393
 H         3.908967         1.816358         1.501934
 H         2.427518         0.923404         2.004570
 H         3.089007        -0.945314        -1.471170
 H         3.109860         1.792653        -2.193480
 H         0.446177        -0.138758         1.441727
 H        -0.751898         0.215829        -0.023886
 H         0.091433        -1.229351         0.127343
