19
Iteration:  4961
 C         1.137789         2.976577         0.222891
 C         2.023186         1.760018         0.028523
 C         3.030964         1.232271         1.110819
 O         3.629205         0.132794         0.377591
 C         2.714417        -0.078960        -0.663935
 C         2.566962         1.278155        -1.415876
 O         1.231430         1.058961        -1.834215
 C         1.222323         0.434381        -0.403364
 C         0.079551        -0.192348         0.212448
 H         0.468602         2.893625         1.115068
 H         1.868359         3.825596         0.563008
 H         0.547231         3.237137        -0.663312
 H         3.864320         1.879650         1.233279
 H         2.611128         0.870302         2.074019
 H         3.095975        -1.026625        -1.053670
 H         3.220892         1.567184        -2.156081
 H         0.369347        -0.796854         1.054484
 H        -0.641503         0.588784         0.499347
 H        -0.390801        -0.840275        -0.644720
