19
Iteration:   894charge 0 multiplicity 1
 C         1.337405         3.094209         0.137284
 C         1.967754         1.774591         0.092161
 C         3.006516         1.224582         1.114064
 O         3.627185         0.159015         0.294715
 C         2.687600        -0.058329        -0.757347
 C         2.495946         1.370097        -1.304338
 O         1.209477         0.918267        -1.807701
 C         1.200499         0.443326        -0.413999
 C         0.077846        -0.311708         0.290108
 H         0.704475         3.364000         1.034883
 H         2.119218         3.874957         0.199737
 H         0.757355         3.269501        -0.785845
 H         3.742934         1.923674         1.407180
 H         2.593332         0.653223         2.033060
 H         2.797498        -0.896710        -1.400482
 H         3.285265         1.905393        -1.866336
 H         0.577443        -1.128260         0.947651
 H        -0.544120         0.451191         0.850011
 H        -0.619938        -0.910819        -0.295338
