19
Iteration:   913
 C         1.324776         3.155359         0.262492
 C         2.016617         1.768138        -0.003934
 C         3.058639         1.320105         1.025269
 O         3.525916         0.046153         0.466759
 C         2.707227        -0.025094        -0.674676
 C         2.511759         1.308414        -1.445414
 O         1.120817         0.990756        -1.843122
 C         1.236080         0.399631        -0.414744
 C         0.154186        -0.355977         0.245840
 H         0.705583         3.170416         1.227632
 H         1.988117         3.991583         0.250853
 H         0.629423         3.332385        -0.473055
 H         3.946272         1.949327         1.079639
 H         2.630676         1.238369         2.065207
 H         2.938992        -1.020086        -1.277718
 H         3.135330         1.832281        -2.101035
 H         0.666689        -1.211617         0.907534
 H        -0.603394         0.213474         0.783956
 H        -0.418247        -0.751977        -0.563641
