19
Iteration:   922charge 0 multiplicity 1
 C         1.325979         3.082515         0.283213
 C         2.021172         1.805834        -0.064852
 C         3.074064         1.376427         1.009439
 O         3.448512         0.004288         0.553776
 C         2.744439        -0.071974        -0.698796
 C         2.488314         1.342711        -1.483450
 O         1.091281         0.963929        -1.784039
 C         1.272344         0.500922        -0.427545
 C         0.183611        -0.349324         0.207093
 H         0.935659         2.997715         1.341229
 H         1.991644         3.952506         0.375686
 H         0.539537         3.309195        -0.433526
 H         3.954872         2.078965         0.798880
 H         2.863531         1.310034         2.052979
 H         2.922865        -1.130064        -1.287929
 H         3.155696         1.894582        -2.133299
 H         0.511437        -1.254889         0.783094
 H        -0.544715         0.214625         0.741961
 H        -0.212837        -0.926792        -0.636293
