19
Iteration:  1311charge 0 multiplicity 1
 C         1.332161         3.104239         0.158685
 C         1.963704         1.775473         0.012985
 C         2.934522         1.233153         1.083688
 O         3.646374         0.115574         0.446543
 C         2.787993        -0.007504        -0.735369
 C         2.498079         1.385754        -1.381434
 O         1.085511         0.800802        -1.808360
 C         1.334951         0.436506        -0.416652
 C         0.104037        -0.228323         0.262002
 H         1.007601         3.387874         1.172445
 H         2.167475         3.872539         0.029639
 H         0.338987         3.144536        -0.452921
 H         3.665540         1.929208         1.575028
 H         2.265944         0.795897         1.834379
 H         3.021696        -0.891044        -1.270234
 H         3.042132         2.002109        -2.213333
 H         0.378411        -0.725693         1.212586
 H        -0.594498         0.602615         0.333286
 H        -0.383986        -0.994500        -0.422173
