19
Iteration:  1820
 C         1.299511         3.125765         0.238002
 C         1.947394         1.770689         0.044328
 C         3.008667         1.325119         0.958198
 O         3.494923         0.059161         0.540690
 C         2.715973        -0.025498        -0.642604
 C         2.560342         1.308933        -1.438527
 O         1.204353         0.969503        -1.854247
 C         1.241733         0.481989        -0.462476
 C         0.180540        -0.405753         0.242639
 H         0.988972         3.473417         1.272827
 H         1.870267         3.807335        -0.291968
 H         0.406139         2.985545        -0.296802
 H         3.785108         2.155272         0.918946
 H         2.746466         1.269066         1.980422
 H         2.933824        -1.051828        -1.199093
 H         3.214295         1.824344        -2.095063
 H         0.585880        -0.709072         1.195929
 H        -0.746719         0.190587         0.470734
 H        -0.341980        -1.196750        -0.394855
