19
Iteration:  3111charge 0 multiplicity 1
 C         1.303759         3.083663         0.201316
 C         1.959263         1.775196         0.037544
 C         3.003861         1.334045         0.959710
 O         3.547645        -0.001908         0.465551
 C         2.766942        -0.008046        -0.673339
 C         2.491899         1.374255        -1.321605
 O         1.173798         0.912437        -1.794543
 C         1.273135         0.407294        -0.401664
 C         0.120412        -0.275972         0.167644
 H         0.965352         3.217631         1.276059
 H         2.039683         3.881393         0.020922
 H         0.544906         3.275863        -0.489358
 H         3.840556         2.097777         1.099203
 H         2.516405         1.114927         1.935497
 H         2.903831        -0.839279        -1.453445
 H         3.185351         1.936099        -1.961630
 H         0.270651        -0.429115         1.221566
 H        -0.713734         0.409591         0.125378
 H        -0.046855        -1.342912        -0.326159
