19
Iteration:  1212
 C         1.195368         2.890495         0.272918
 C         2.051197         1.736780         0.004456
 C         3.169899         1.414039         0.939096
 O         3.410640         0.000782         0.532392
 C         2.706348        -0.058742        -0.692438
 C         2.489127         1.369734        -1.436402
 O         1.224173         0.970301        -1.882237
 C         1.259778         0.487816        -0.445932
 C         0.159099        -0.218291         0.337245
 H         0.392512         2.805101         0.972569
 H         1.826006         3.791586         0.366626
 H         0.737238         3.173155        -0.789039
 H         3.966548         2.128381         0.809315
 H         2.843296         1.322177         1.995473
 H         2.875795        -0.928930        -1.146125
 H         3.135973         2.111996        -2.063316
 H         0.595629        -0.192172         1.301409
 H        -0.888279         0.176452         0.429194
 H         0.067351        -1.209461        -0.208336
