19
Iteration:  1662charge 0 multiplicity 1
 C         1.188031         3.053814         0.287270
 C         1.983450         1.820867        -0.011050
 C         3.135139         1.402813         0.958516
 O         3.459685        -0.002784         0.554611
 C         2.701706        -0.111415        -0.613540
 C         2.585176         1.288938        -1.424211
 O         1.248916         0.966266        -1.863886
 C         1.175878         0.525232        -0.515531
 C         0.150075        -0.330555         0.227769
 H         0.911900         3.117840         1.289700
 H         1.750024         4.030973         0.168788
 H         0.224283         2.974263        -0.234048
 H         4.056502         2.066001         0.809292
 H         2.918802         1.384028         1.969992
 H         2.863002        -0.956557        -1.163215
 H         3.195121         1.850279        -2.305341
 H         0.488101        -0.138317         1.325257
 H        -0.908554        -0.028519         0.158622
 H         0.208597        -1.333100        -0.164466
