19
Iteration:  3639
 C         1.374995         3.148007         0.213814
 C         2.004562         1.843290         0.065688
 C         3.006890         1.217137         1.122249
 O         3.593592         0.097569         0.400365
 C         2.760991        -0.098102        -0.667359
 C         2.479286         1.305919        -1.333395
 O         1.083281         0.923124        -1.842169
 C         1.258970         0.502777        -0.392837
 C         0.117554        -0.329689         0.104978
 H         0.627491         3.076426         1.050173
 H         2.068875         3.905815         0.498485
 H         0.783996         3.538879        -0.719353
 H         3.843893         1.943146         1.166742
 H         2.538398         0.930619         2.095446
 H         2.789986        -0.920576        -1.334192
 H         3.022156         1.921924        -2.035185
 H         0.393797        -0.653571         1.172947
 H        -0.825585         0.202536         0.158665
 H        -0.030067        -1.167228        -0.525348
