19
Iteration:  1875charge 0 multiplicity 1
 C         1.265233         3.073035         0.133153
 C         1.940813         1.700889         0.035072
 C         3.069308         1.339998         1.063585
 O         3.745984         0.159084         0.411697
 C         2.756538        -0.077666        -0.656184
 C         2.484404         1.269115        -1.320601
 O         1.148880         0.934744        -1.842172
 C         1.232202         0.426681        -0.382834
 C        -0.013686        -0.232639         0.167778
 H         0.522817         2.987837         1.003659
 H         1.928552         3.755517         0.554805
 H         0.801640         3.406569        -0.766556
 H         3.753160         2.177999         1.419207
 H         2.704897         0.846948         1.902028
 H         3.030352        -1.064770        -1.193715
 H         3.171413         1.868607        -1.840833
 H         0.115503        -0.515854         1.258226
 H        -0.874598         0.471800         0.174832
 H        -0.202339        -1.246014        -0.291189
