19
Iteration:  1338charge 0 multiplicity 1
 C         1.175923         3.034598         0.140485
 C         2.004611         1.789683         0.020369
 C         3.071998         1.328126         1.031213
 O         3.458373         0.051577         0.475949
 C         2.695161        -0.060237        -0.720543
 C         2.571495         1.278801        -1.415543
 O         1.201216         1.000021        -1.890909
 C         1.318390         0.515450        -0.392476
 C         0.169379        -0.297630         0.329157
 H         0.676414         2.869147         1.132739
 H         1.682188         3.944423         0.321817
 H         0.432668         3.066815        -0.558034
 H         3.909132         2.005950         1.090501
 H         2.666942         1.077224         2.092706
 H         2.975054        -1.068278        -1.156097
 H         3.244245         1.706881        -2.055462
 H         0.686576        -0.820066         1.181528
 H        -0.446472         0.545631         0.705466
 H        -0.383688        -1.033803        -0.217283
