19
Iteration:    29charge 0 multiplicity 1
 C         1.392337         3.174593         0.184987
 C         1.973117         1.729312         0.015115
 C         2.910016         1.218903         1.109843
 O         3.703731         0.290068         0.426771
 C         2.828413        -0.024718        -0.699497
 C         2.435061         1.318352        -1.420534
 O         1.141109         0.777208        -1.717343
 C         1.300206         0.372319        -0.408905
 C        -0.010858        -0.283796         0.139059
 H         0.493538         3.158118         0.832700
 H         2.102660         3.896218         0.569553
 H         1.003024         3.624746        -0.825780
 H         3.608664         2.015049         1.558098
 H         2.352741         0.766411         2.005609
 H         3.120659        -1.047241        -1.167116
 H         2.789677         2.037911        -2.164006
 H         0.409695        -0.904389         1.044939
 H        -0.881643         0.388544         0.291407
 H        -0.367495        -0.891423        -0.716934
