19
Iteration:  4602charge 0 multiplicity 1
 C         1.169838         2.946711         0.315505
 C         2.056285         1.747262        -0.010608
 C         3.026635         1.287118         0.994314
 O         3.608089         0.045692         0.531568
 C         2.707316        -0.041355        -0.725454
 C         2.566830         1.326856        -1.369227
 O         1.221944         1.007617        -1.857264
 C         1.259913         0.475016        -0.406418
 C         0.065356        -0.188619         0.156543
 H         0.544551         2.692564         1.213194
 H         1.556480         4.102389         0.428536
 H         0.428001         3.190375        -0.397554
 H         3.900898         1.889269         1.312798
 H         2.506234         1.198915         1.888418
 H         2.941771        -0.963926        -1.413452
 H         3.234095         1.594866        -2.164485
 H         0.473176        -0.622989         1.028046
 H        -0.731915         0.520682         0.367801
 H        -0.271310        -0.908765        -0.689423
