19
Iteration:  3952charge 0 multiplicity 1
 C         1.295442         3.016577         0.286025
 C         1.926737         1.739004         0.037237
 C         3.148737         1.318492         0.982289
 O         3.436436        -0.007125         0.601137
 C         2.722998        -0.006880        -0.653614
 C         2.521305         1.381534        -1.397276
 O         1.130342         1.010139        -1.847932
 C         1.262777         0.469528        -0.504655
 C         0.166015        -0.340631         0.143916
 H         0.408296         3.140773         1.080399
 H         2.170409         3.873971         0.422897
 H         0.829897         3.368756        -0.649457
 H         3.968729         1.979339         0.600674
 H         3.316248         1.546049         2.059290
 H         3.129937        -0.843302        -1.296646
 H         3.115216         1.967057        -2.106682
 H         0.288043        -0.820894         1.119095
 H        -0.702841         0.251784         0.267902
 H        -0.049181        -1.265354        -0.452328
