19
Iteration:  4015
 C         1.314993         3.090096         0.210851
 C         2.033682         1.723367        -0.005164
 C         2.974312         1.226614         1.099085
 O         3.610729         0.108854         0.437664
 C         2.762007        -0.051722        -0.661384
 C         2.425186         1.359648        -1.380897
 O         1.167826         0.957327        -1.802868
 C         1.194101         0.444902        -0.442193
 C         0.134811        -0.273569         0.172862
 H         0.958726         3.088589         1.319914
 H         2.103741         3.751248         0.085513
 H         0.575774         3.353022        -0.480768
 H         3.726334         1.949011         1.340558
 H         2.394778         0.871044         1.957237
 H         3.133921        -0.910664        -1.190145
 H         3.089606         2.022632        -2.049188
 H         0.496902        -0.589651         1.114171
 H        -0.681344         0.447511         0.248613
 H        -0.243443        -1.092648        -0.603741
