19
Iteration:   403
 C         1.183849         3.062541         0.292727
 C         2.045901         1.848750        -0.015290
 C         3.125082         1.265570         1.009735
 O         3.328197        -0.089248         0.542851
 C         2.707565        -0.026620        -0.728872
 C         2.549248         1.458949        -1.420053
 O         1.141096         0.944264        -1.845775
 C         1.320137         0.465125        -0.460394
 C         0.305702        -0.262245         0.235057
 H         0.590401         2.877672         1.252093
 H         1.829103         3.993509         0.404828
 H         0.464202         3.235075        -0.505094
 H         3.957063         1.892521         1.016531
 H         2.687346         1.098108         2.070078
 H         2.941282        -0.899666        -1.408354
 H         3.076827         1.939311        -2.222997
 H         0.797486        -0.662527         1.215234
 H        -0.618908         0.334764         0.271411
 H        -0.008050        -1.055036        -0.383896
