19
Iteration:  2292charge 0 multiplicity 1
 C         1.260235         2.977946         0.230340
 C         1.999622         1.721472         0.040950
 C         3.092878         1.354205         1.055093
 O         3.600898         0.134864         0.462136
 C         2.770600        -0.050799        -0.759270
 C         2.540602         1.286378        -1.449388
 O         1.148485         0.870937        -1.756642
 C         1.236747         0.441800        -0.405516
 C         0.036818        -0.159740         0.184893
 H         0.602926         2.989130         1.146982
 H         1.888583         3.765654         0.310221
 H         0.458410         3.131985        -0.509374
 H         3.863778         2.113570         1.341627
 H         2.610192         1.140118         2.005031
 H         3.046573        -1.079047        -1.412677
 H         3.171637         1.966195        -2.093469
 H         0.172255        -0.361299         1.321235
 H        -0.780397         0.561699         0.078919
 H        -0.188564        -0.998252        -0.423903
