19
Iteration:   823charge 0 multiplicity 1
 C         1.155160         3.012700         0.440438
 C         1.975676         1.770346         0.019711
 C         3.240904         1.358990         0.918306
 O         3.512227        -0.028476         0.466430
 C         2.632379        -0.050750        -0.651307
 C         2.555245         1.292480        -1.400323
 O         1.256985         0.959789        -1.927424
 C         1.195295         0.502426        -0.431489
 C         0.106315        -0.202785         0.197867
 H         0.777575         2.864587         1.407850
 H         1.705743         3.965929         0.529389
 H         0.255013         3.176994        -0.242132
 H         4.102275         2.026447         0.487600
 H         3.030070         1.600242         1.970180
 H         2.784278        -0.989154        -1.234875
 H         3.151857         1.978680        -2.089659
 H         0.499515        -0.413196         1.221775
 H        -0.926507         0.200524         0.150211
 H         0.062734        -1.335252        -0.129801
