19
Iteration:  3062charge 0 multiplicity 1
 C         1.290233         3.135656         0.253094
 C         2.052754         1.803528         0.011445
 C         3.020815         1.325466         1.076330
 O         3.632445         0.115818         0.409693
 C         2.683726        -0.145805        -0.684398
 C         2.481426         1.303160        -1.363007
 O         1.161388         0.870468        -1.790905
 C         1.263493         0.430979        -0.348281
 C         0.075579        -0.256515         0.133108
 H         0.651306         3.210148         1.113447
 H         2.098074         3.978330         0.364417
 H         0.670650         3.486635        -0.709217
 H         3.772957         2.048466         1.183869
 H         2.488159         1.133338         1.990609
 H         2.869168        -0.940598        -1.352070
 H         2.997766         1.849962        -2.169089
 H         0.128323        -0.777792         1.176683
 H        -0.934055         0.253309        -0.059561
 H         0.225356        -1.002655        -0.557253
