19
Iteration:  3699charge 0 multiplicity 1
 C         1.129834         2.987039         0.334045
 C         2.028014         1.772830         0.079871
 C         3.158558         1.299567         0.978719
 O         3.514229        -0.017850         0.547989
 C         2.700966        -0.033746        -0.734933
 C         2.521632         1.405494        -1.352182
 O         1.233245         0.926540        -1.881162
 C         1.262780         0.490345        -0.515804
 C         0.075526        -0.200733         0.160435
 H         0.666496         2.979146         1.295307
 H         1.729164         3.968189         0.328141
 H         0.586443         2.910333        -0.516899
 H         4.108062         1.915017         0.727353
 H         3.277357         1.379132         2.097312
 H         2.862547        -0.901178        -1.434376
 H         3.265010         1.833658        -2.095049
 H         0.390830        -0.487114         1.134980
 H        -0.717246         0.524581         0.443258
 H        -0.575718        -1.132366        -0.233828
