19
Iteration:   672charge 0 multiplicity 1
 C         1.192501         2.974902         0.434639
 C         2.038341         1.849981         0.020299
 C         3.202767         1.388814         0.959663
 O         3.453750         0.019058         0.495534
 C         2.557500        -0.103575        -0.611338
 C         2.567776         1.289075        -1.462390
 O         1.236800         0.987149        -1.989154
 C         1.231984         0.505242        -0.460727
 C         0.149234        -0.256448         0.222121
 H         0.791590         2.772411         1.530032
 H         1.747872         3.928295         0.491170
 H         0.267398         3.194333        -0.218587
 H         4.059641         1.996370         0.728837
 H         3.161262         1.446829         2.154943
 H         2.625675        -0.952349        -1.251626
 H         3.242207         1.753251        -2.182278
 H         0.710174        -0.977349         0.868515
 H        -0.583842         0.100088         0.963602
 H        -0.273711        -0.952859        -0.604188
