19
Iteration:  2090
 C         1.115950         2.921424         0.273346
 C         2.046937         1.730958         0.013220
 C         3.120536         1.436684         1.058673
 O         3.473571         0.053769         0.481687
 C         2.764447        -0.118610        -0.719712
 C         2.519696         1.392203        -1.449613
 O         1.221193         0.916313        -1.845920
 C         1.294089         0.390942        -0.465549
 C         0.110223        -0.140094         0.243215
 H         0.607060         2.982974         1.248582
 H         1.874402         3.873167         0.295467
 H         0.477404         3.089567        -0.552843
 H         3.978437         2.070086         1.217618
 H         2.645982         1.232113         2.073995
 H         2.909793        -1.031659        -1.317724
 H         3.172083         1.852271        -2.223940
 H         0.506811        -0.213560         1.293794
 H        -0.719732         0.674534         0.245723
 H        -0.149498        -1.236153        -0.082267
