19
Iteration:   281charge 0 multiplicity 1
 C         1.171802         2.959336         0.271298
 C         1.995289         1.733272         0.014516
 C         3.024241         1.358828         0.992219
 O         3.499417         0.043470         0.464982
 C         2.750608        -0.109100        -0.714533
 C         2.601380         1.330126        -1.392842
 O         1.255281         1.045529        -1.941446
 C         1.255173         0.440049        -0.436307
 C         0.126537        -0.189173         0.343294
 H         0.848338         2.846677         1.348347
 H         1.587978         3.930619         0.113025
 H         0.206622         2.849679        -0.366940
 H         3.727445         2.130130         1.111135
 H         2.633793         1.053557         2.040652
 H         2.923568        -0.966417        -1.310859
 H         3.342760         1.848159        -2.016951
 H         0.697960        -0.783059         1.232070
 H        -0.719877         0.510000         0.627980
 H        -0.338936        -0.939134        -0.276949
