19
Iteration:  2961charge 0 multiplicity 1
 C         1.266243         3.049092         0.230210
 C         2.009568         1.776834         0.042184
 C         2.989210         1.300259         1.090596
 O         3.586288         0.116198         0.431705
 C         2.756900        -0.100062        -0.732488
 C         2.446518         1.352352        -1.444395
 O         1.171442         0.904583        -1.772363
 C         1.360651         0.391945        -0.386339
 C         0.099892        -0.191300         0.197817
 H         0.681872         3.204068         1.220125
 H         1.977957         3.813487         0.137323
 H         0.470309         3.201432        -0.634088
 H         3.717377         2.007609         1.340612
 H         2.429459         1.165372         2.055461
 H         2.991207        -1.065800        -1.342077
 H         3.169355         1.589938        -2.270980
 H         0.284862        -0.702342         1.110370
 H        -0.570647         0.680211         0.114020
 H        -0.337332        -0.995630        -0.430955
