19
Iteration:  4894charge 0 multiplicity 1
 C         1.272172         3.050117         0.296090
 C         1.969863         1.772578         0.021002
 C         3.077526         1.335340         0.978139
 O         3.480771         0.016975         0.516555
 C         2.679977        -0.063429        -0.606878
 C         2.538557         1.399541        -1.283384
 O         1.204392         0.983481        -1.870768
 C         1.237410         0.476728        -0.547541
 C         0.142497        -0.334419         0.142947
 H         1.079863         3.104466         1.369336
 H         2.159277         3.835410         0.206418
 H         0.419451         3.222075        -0.421807
 H         3.841207         2.026597         0.677181
 H         2.859009         1.282765         2.062102
 H         2.930036        -0.764456        -1.465123
 H         3.163423         1.780721        -1.985122
 H         0.452961        -0.600808         1.093169
 H        -0.861026         0.078120         0.310067
 H         0.052936        -1.427149        -0.364492
