19
Iteration:  2506charge 0 multiplicity 1
 C         1.263590         3.004118         0.264488
 C         2.000527         1.716587        -0.003007
 C         3.086266         1.379311         0.993621
 O         3.516293         0.053570         0.458164
 C         2.748231         0.012847        -0.718674
 C         2.557523         1.333075        -1.380893
 O         1.119410         0.910225        -1.807537
 C         1.268979         0.439041        -0.354703
 C         0.085505        -0.250317         0.181285
 H         0.843733         3.195163         1.285122
 H         2.066079         3.931588         0.276931
 H         0.648324         3.202348        -0.615809
 H         4.019635         1.981812         0.927090
 H         2.723607         1.075805         2.038871
 H         3.055780        -0.801398        -1.290018
 H         3.209139         1.885941        -2.098815
 H         0.135033        -0.311816         1.304267
 H        -0.943366         0.221993         0.160007
 H         0.020616        -1.240390        -0.365181
