19
Iteration:  3237
 C         1.340259         3.034661         0.252169
 C         2.051436         1.785304         0.013359
 C         3.060409         1.326124         1.080980
 O         3.601128         0.149194         0.458106
 C         2.696889        -0.081048        -0.618604
 C         2.567170         1.333501        -1.362138
 O         1.064437         0.984694        -1.858470
 C         1.257677         0.362484        -0.479799
 C         0.023201        -0.305904         0.127582
 H         0.851470         3.019543         1.210183
 H         2.078706         3.840493         0.328372
 H         0.655662         3.296359        -0.608093
 H         3.837042         2.096559         1.308834
 H         2.630443         1.078620         2.161399
 H         2.990143        -1.188024        -0.902303
 H         3.150522         1.811492        -2.202081
 H         0.396762        -0.624605         1.188654
 H        -0.932192         0.325236         0.137909
 H        -0.192180        -1.075158        -0.565570
