19
Iteration:   254
 C         1.117081         2.999166         0.233542
 C         2.072935         1.843074        -0.017860
 C         3.201570         1.352072         0.961772
 O         3.302924        -0.049752         0.604599
 C         2.699637        -0.020078        -0.664263
 C         2.591826         1.379402        -1.435615
 O         1.143874         0.953112        -1.813009
 C         1.308549         0.535696        -0.480687
 C         0.252895        -0.297546         0.209004
 H         0.560889         2.692251         1.108285
 H         1.571598         3.997444         0.608185
 H         0.455162         3.153025        -0.589653
 H         4.205744         1.985697         0.943090
 H         2.934296         1.217746         1.963931
 H         2.800023        -1.006206        -1.336619
 H         3.264067         1.808403        -2.266149
 H         0.721326        -0.786313         0.956220
 H        -0.530024         0.279583         0.665468
 H         0.007240        -1.113563        -0.567931
