19
Iteration:    80charge 0 multiplicity 1
 C         1.239082         3.035014         0.206692
 C         2.000163         1.778680         0.007856
 C         3.085243         1.403130         1.016660
 O         3.465869         0.073098         0.504452
 C         2.774105        -0.004489        -0.658218
 C         2.478646         1.309328        -1.396256
 O         1.179746         0.933242        -1.788452
 C         1.304139         0.407539        -0.410747
 C         0.151591        -0.333814         0.161822
 H         0.479852         3.030085         0.975487
 H         1.971713         3.876020         0.403075
 H         0.755900         3.243946        -0.700606
 H         3.946190         1.989535         1.112778
 H         2.551457         1.230157         1.952221
 H         2.990780        -0.975441        -1.132311
 H         3.105107         1.879592        -2.194229
 H         0.462675        -0.803344         1.023652
 H        -0.522728         0.473328         0.417247
 H        -0.386011        -1.010162        -0.625388
