19
Iteration:  4827charge 0 multiplicity 1
 C         1.311307         3.017398         0.207184
 C         1.862161         1.702066         0.133382
 C         3.028337         1.285833         1.112125
 O         3.600914         0.085584         0.385554
 C         2.742717         0.021430        -0.721687
 C         2.516106         1.369435        -1.328404
 O         1.226771         0.963899        -1.870918
 C         1.258318         0.387148        -0.426441
 C         0.043046        -0.254360         0.202748
 H         0.594158         3.189636         1.038557
 H         2.010348         3.898351         0.267465
 H         0.823936         3.252312        -0.837144
 H         3.858356         1.998755         1.140385
 H         2.782695         0.959556         2.181593
 H         3.159131        -0.846915        -1.305238
 H         3.208637         1.843268        -2.002850
 H         0.141859        -0.596767         1.244706
 H        -0.716354         0.533514         0.154193
 H        -0.168893        -1.191146        -0.445540
