19
Iteration:   696
 C         1.229287         3.022349         0.280277
 C         2.041854         1.812521         0.013952
 C         3.040754         1.283506         0.988751
 O         3.455089         0.010289         0.450541
 C         2.780748        -0.053141        -0.778499
 C         2.588324         1.392378        -1.423656
 O         1.119911         0.948170        -1.776225
 C         1.328822         0.456991        -0.442677
 C         0.141782        -0.237123         0.258845
 H         0.677159         2.987189         1.332425
 H         1.879111         3.874043         0.313882
 H         0.509745         3.227083        -0.436042
 H         3.846142         2.006005         1.294958
 H         2.535683         0.996708         1.963636
 H         2.960035        -0.970003        -1.495040
 H         3.128201         1.937154        -2.167964
 H         0.454870        -1.035288         1.062422
 H        -0.513301         0.416153         0.874915
 H        -0.415082        -0.723505        -0.482410
