19
Iteration:    79
 C         1.244683         3.042552         0.204221
 C         1.995008         1.777983         0.011696
 C         3.074524         1.398587         1.016833
 O         3.475490         0.084629         0.492319
 C         2.771060        -0.015380        -0.654090
 C         2.481099         1.311829        -1.391470
 O         1.184537         0.932984        -1.788895
 C         1.299579         0.399680        -0.408260
 C         0.145951        -0.342517         0.160104
 H         0.472907         3.046655         0.967552
 H         1.989155         3.874086         0.417601
 H         0.789715         3.274244        -0.686475
 H         3.924727         1.987209         1.135427
 H         2.575613         1.222883         1.918197
 H         3.007094        -0.951163        -1.092496
 H         3.083275         1.865305        -2.180649
 H         0.463431        -0.783901         0.995911
 H        -0.509757         0.470299         0.406087
 H        -0.418950        -0.980891        -0.583376
