19
Iteration:  2335
 C         1.209943         3.110239         0.291261
 C         2.006528         1.782332         0.037158
 C         3.195572         1.438217         0.979642
 O         3.419984         0.013233         0.499476
 C         2.676471        -0.080665        -0.680904
 C         2.591622         1.292656        -1.338961
 O         1.155062         0.898563        -1.870769
 C         1.252211         0.493049        -0.448218
 C         0.139493        -0.293752         0.184401
 H         0.628976         3.074414         1.274054
 H         1.954837         3.809868         0.272337
 H         0.426100         3.380138        -0.410314
 H         4.037207         2.123928         0.648148
 H         3.176302         1.501891         2.102012
 H         2.925243        -1.106174        -1.324659
 H         3.118234         1.778224        -2.209247
 H         0.490128        -0.673957         1.260155
 H        -0.921675         0.009496         0.203094
 H         0.176587        -1.211341        -0.348763
