19
Iteration:  3100charge 0 multiplicity 1
 C         1.382957         3.127392         0.231742
 C         1.945949         1.718531         0.019923
 C         3.034404         1.389050         1.078590
 O         3.580654         0.096960         0.446697
 C         2.709938        -0.060551        -0.742690
 C         2.455633         1.358383        -1.347964
 O         1.199021         0.955205        -1.831222
 C         1.266344         0.308408        -0.422451
 C         0.030250        -0.291215         0.215769
 H         0.778721         3.306731         1.175679
 H         2.169830         3.889937         0.071767
 H         0.638543         3.146483        -0.474009
 H         3.975401         2.038611         1.299964
 H         2.571113         1.135393         2.070458
 H         3.284921        -0.868037        -1.378936
 H         3.163733         1.795087        -2.055361
 H         0.238245        -0.526228         1.232707
 H        -0.885540         0.198000        -0.036909
 H        -0.235492        -1.368774        -0.330290
