19
Iteration:  1739charge 0 multiplicity 1
 C         1.226276         3.003911         0.173961
 C         1.979107         1.729218         0.047075
 C         3.045959         1.302933         1.068574
 O         3.722211         0.212684         0.373190
 C         2.797493        -0.110626        -0.669147
 C         2.519189         1.294741        -1.365493
 O         1.216882         0.891355        -1.785769
 C         1.201843         0.398740        -0.407760
 C        -0.080283        -0.163813         0.194957
 H         0.386345         2.954863         0.801819
 H         1.880023         3.867553         0.532743
 H         0.916293         3.296177        -0.800894
 H         3.753325         2.123455         1.310266
 H         2.570169         0.974495         1.939147
 H         2.932744        -1.002359        -1.144538
 H         3.258279         1.927358        -1.999911
 H         0.344547        -0.586262         1.121881
 H        -0.854846         0.552038         0.394537
 H        -0.398610        -1.052759        -0.244853
