19
Iteration:   676charge 0 multiplicity 1
 C         1.200145         2.989581         0.407446
 C         2.047831         1.836595        -0.009318
 C         3.153919         1.355082         0.976621
 O         3.467863         0.006849         0.480655
 C         2.569055        -0.046860        -0.613019
 C         2.542696         1.294633        -1.448166
 O         1.241346         0.977655        -1.961066
 C         1.219358         0.503014        -0.431485
 C         0.180981        -0.253898         0.217020
 H         0.828237         2.716011         1.438916
 H         1.683343         3.937169         0.495634
 H         0.392988         3.089668        -0.201882
 H         4.146289         1.953129         0.783648
 H         2.995471         1.461194         2.015538
 H         2.651473        -1.025894        -1.319878
 H         3.213463         1.793877        -2.134099
 H         0.821956        -1.011302         0.863065
 H        -0.613668         0.162006         0.857279
 H        -0.356254        -0.781690        -0.489686
