19
Iteration:  2569
 C         1.318826         3.100299         0.203855
 C         2.036869         1.805841         0.022631
 C         3.046579         1.281155         1.054887
 O         3.522186         0.080790         0.455477
 C         2.683547        -0.031170        -0.678265
 C         2.491601         1.336628        -1.391992
 O         1.151017         0.941489        -1.842011
 C         1.300894         0.413673        -0.428551
 C         0.105509        -0.322296         0.244336
 H         0.758721         3.271329         1.065536
 H         2.050382         3.904764         0.207454
 H         0.551415         2.993125        -0.639782
 H         3.854218         2.077651         1.274319
 H         2.670263         1.008829         2.045986
 H         2.888840        -0.772150        -1.420042
 H         3.182356         1.904814        -2.086500
 H         0.573133        -0.696481         1.132533
 H        -0.755190         0.314479         0.565877
 H        -0.271495        -1.191507        -0.466687
