19
Iteration:  3828
 C         1.221166         3.074778         0.305736
 C         2.122943         1.772083        -0.003590
 C         3.153163         1.421948         0.967987
 O         3.401837         0.036039         0.496743
 C         2.636450        -0.124970        -0.707215
 C         2.572936         1.282103        -1.338994
 O         1.168695         1.032285        -1.794242
 C         1.264250         0.496108        -0.394276
 C         0.141039        -0.364211         0.100829
 H         0.478378         2.801468         1.167887
 H         1.979788         3.789641         0.475676
 H         0.577908         3.556592        -0.435732
 H         4.092983         1.920070         0.878653
 H         2.722214         1.413373         1.975616
 H         2.913719        -1.023554        -1.281756
 H         3.137995         1.936085        -2.074932
 H         0.438815        -0.682002         1.040192
 H        -0.884134        -0.030243         0.193340
 H         0.148004        -1.284176        -0.524562
