19
Iteration:  4878
 C         1.340714         3.104011         0.334158
 C         1.999942         1.754922         0.048124
 C         3.087686         1.354134         1.044451
 O         3.484526         0.092757         0.466457
 C         2.653692        -0.041069        -0.729397
 C         2.558206         1.260033        -1.400342
 O         1.203089         0.985548        -1.853300
 C         1.221675         0.489511        -0.406197
 C         0.104340        -0.416134         0.090848
 H         0.799763         3.080233         1.301869
 H         1.879460         3.977119         0.183027
 H         0.524519         3.354472        -0.388792
 H         3.934263         2.128646         1.252308
 H         2.612244         1.282008         2.047113
 H         2.796805        -1.050372        -0.994497
 H         3.296036         1.964225        -2.019760
 H         0.388256        -0.658946         1.221756
 H        -0.869734         0.092828         0.040091
 H         0.121598        -1.306618        -0.420243
