19
Iteration:  1901
 C         1.170889         2.987469         0.258531
 C         2.006406         1.746135         0.017552
 C         3.111753         1.414203         1.004138
 O         3.516603         0.065108         0.496072
 C         2.698108        -0.052125        -0.706708
 C         2.565165         1.317242        -1.413062
 O         1.221356         0.911361        -1.839295
 C         1.329780         0.413973        -0.417935
 C         0.046867        -0.183261         0.219096
 H         0.510678         2.667066         0.995265
 H         1.640811         3.865666         0.773580
 H         0.613968         3.327087        -0.710953
 H         3.859546         2.096847         0.744521
 H         3.054027         1.302489         2.148073
 H         2.963350        -0.888927        -1.240678
 H         3.253180         1.672674        -2.227025
 H         0.117884        -0.540342         1.337693
 H        -0.833049         0.483274         0.188545
 H        -0.051962        -1.152906        -0.239837
