19
Iteration:  1686charge 0 multiplicity 1
 C         1.279381         3.055489         0.218609
 C         1.977770         1.774191        -0.008504
 C         3.042035         1.321764         1.078827
 O         3.547168         0.136102         0.446341
 C         2.744484        -0.045352        -0.685279
 C         2.497686         1.351608        -1.416676
 O         1.161786         0.836715        -1.827541
 C         1.323784         0.368875        -0.358740
 C         0.097226        -0.212867         0.188508
 H         0.722406         2.974866         1.216521
 H         1.982515         3.899059         0.431460
 H         0.604399         3.272952        -0.493111
 H         3.906682         2.072206         1.247545
 H         2.563839         1.083128         2.019459
 H         2.939639        -0.921044        -1.319660
 H         3.221360         1.809112        -2.161478
 H        -0.022116        -0.149990         1.305977
 H        -0.672921         0.450017        -0.308933
 H        -0.054943        -1.242778        -0.222744
