19
Iteration:  4009charge 0 multiplicity 1
 C         1.342751         3.056134         0.239022
 C         2.005751         1.754928         0.000107
 C         2.992992         1.281305         1.085886
 O         3.614696         0.076922         0.482695
 C         2.738872        -0.038882        -0.683859
 C         2.469400         1.313872        -1.382555
 O         1.121585         0.947384        -1.821389
 C         1.219248         0.504995        -0.446346
 C         0.161053        -0.295703         0.121706
 H         0.905597         3.267575         1.193283
 H         2.092113         3.997633         0.268451
 H         0.519044         3.411883        -0.485090
 H         3.817851         1.975160         1.403287
 H         2.417651         0.806428         1.914124
 H         2.910753        -1.044998        -1.212276
 H         2.920412         1.993233        -2.040673
 H         0.489397        -0.711580         1.134910
 H        -0.790465         0.264097         0.309274
 H        -0.140402        -1.087606        -0.458523
