19
Iteration:  3912
 C         1.180746         2.983745         0.232393
 C         2.074062         1.790577         0.033951
 C         3.028789         1.198629         1.052158
 O         3.659844         0.094644         0.414785
 C         2.754205         0.007749        -0.640724
 C         2.568439         1.314350        -1.398119
 O         1.193937         0.942287        -1.834369
 C         1.209406         0.501709        -0.395991
 C         0.023240        -0.197075         0.163674
 H         0.831381         2.941384         1.216651
 H         1.631996         3.956869         0.340472
 H         0.288869         3.086608        -0.493217
 H         3.905827         1.831542         1.434051
 H         2.518704         0.774380         1.948528
 H         2.874768        -0.967989        -1.243754
 H         3.127804         1.687692        -2.238279
 H         0.285351        -0.586640         1.239992
 H        -0.795808         0.605305         0.270049
 H        -0.305534        -0.932214        -0.514778
