19
Iteration:  4374charge 0 multiplicity 1
 C         1.243928         3.054797         0.299327
 C         1.990203         1.755351         0.077613
 C         3.115926         1.366117         1.003667
 O         3.429275         0.030674         0.542306
 C         2.712648        -0.040277        -0.703817
 C         2.595218         1.374145        -1.341914
 O         1.203174         0.958174        -1.874745
 C         1.226875         0.393473        -0.512080
 C         0.133285        -0.284451         0.080186
 H         0.718574         3.026152         1.325891
 H         1.893783         3.929414         0.375227
 H         0.376892         3.197808        -0.285362
 H         4.060452         1.878374         1.005893
 H         2.845306         1.390682         2.059503
 H         2.858967        -1.028341        -1.265901
 H         3.215398         2.011691        -1.983859
 H         0.716091        -0.635995         0.932283
 H        -0.601943         0.383870         0.541944
 H        -0.342180        -1.225481        -0.408978
