19
Iteration:  4663
 C         1.243866         3.078119         0.250369
 C         1.963973         1.773614         0.081404
 C         3.090903         1.298699         1.099982
 O         3.535860         0.051076         0.506300
 C         2.709353        -0.068480        -0.718163
 C         2.592863         1.387997        -1.351156
 O         1.201804         1.011313        -1.867260
 C         1.184369         0.393326        -0.521846
 C         0.090053        -0.295394         0.158290
 H         0.880221         2.998168         1.257058
 H         1.992548         3.803543         0.255740
 H         0.578342         3.159504        -0.696864
 H         3.896870         2.034179         0.956237
 H         2.721001         1.016176         2.166777
 H         2.918630        -0.869769        -1.352444
 H         3.184938         1.989166        -2.106527
 H         0.462795        -0.628022         1.180903
 H        -0.882826         0.199086         0.162429
 H         0.019125        -1.330218        -0.216701
