19
Iteration:  2175charge 0 multiplicity 1
 C         1.303722         3.152861         0.248662
 C         1.908327         1.783555         0.001617
 C         3.122193         1.314403         0.983326
 O         3.528306         0.092639         0.517974
 C         2.705305        -0.011746        -0.626541
 C         2.539281         1.330639        -1.407880
 O         1.158019         0.928481        -1.832677
 C         1.224847         0.418276        -0.421461
 C         0.122676        -0.395750         0.162793
 H         0.737860         3.199458         1.143681
 H         2.095672         3.948701         0.315876
 H         0.502615         3.247976        -0.551319
 H         3.912413         2.098725         0.788639
 H         3.096806         1.268436         2.111686
 H         2.929129        -1.007664        -1.077901
 H         3.284991         1.716964        -2.179606
 H         0.359728        -0.751620         1.193315
 H        -0.732431         0.230507         0.373945
 H        -0.207543        -1.214836        -0.550472
