19
Iteration:  2111
 C         1.176361         3.026632         0.173170
 C         1.991652         1.700210        -0.000009
 C         3.023245         1.249912         1.000978
 O         3.639310         0.110622         0.414372
 C         2.811964        -0.014802        -0.687517
 C         2.565262         1.293784        -1.331559
 O         1.211847         0.941629        -1.865179
 C         1.231394         0.446534        -0.377762
 C         0.051811        -0.170114         0.275823
 H         0.697979         2.928270         1.141902
 H         1.540458         4.156125         0.276549
 H         0.381070         2.935011        -0.536563
 H         3.726706         2.090043         1.147477
 H         2.634316         0.911829         2.050862
 H         2.777878        -0.930863        -1.271554
 H         3.333318         1.843233        -1.949085
 H         0.192846        -0.306046         1.417079
 H        -0.844438         0.581966         0.262099
 H        -0.187683        -1.251122        -0.152316
