19
Iteration:  3399charge 0 multiplicity 1
 C         1.232779         2.992753         0.240276
 C         2.095855         1.791744         0.033827
 C         3.099497         1.377263         1.070167
 O         3.550416         0.015928         0.495806
 C         2.687449        -0.039247        -0.683441
 C         2.494681         1.277434        -1.447790
 O         1.189381         1.008952        -1.829638
 C         1.203030         0.466479        -0.379239
 C         0.077387        -0.270266         0.126777
 H         0.903595         2.901558         1.328700
 H         1.759754         3.900841         0.371435
 H         0.358554         3.153771        -0.543186
 H         3.983012         1.970606         0.882672
 H         2.909600         1.414573         2.096303
 H         3.115649        -0.939954        -1.248052
 H         3.244649         1.710967        -2.181548
 H         0.440829        -0.709863         1.095602
 H        -0.865248         0.251193         0.385692
 H        -0.294905        -1.023460        -0.555175
