19
Iteration:  1259
 C         1.290771         3.074559         0.256831
 C         1.979901         1.813443         0.066801
 C         3.175854         1.380500         0.972405
 O         3.593082         0.112723         0.435007
 C         2.692778        -0.068847        -0.619455
 C         2.470421         1.257674        -1.383570
 O         1.158522         0.892775        -1.798006
 C         1.233868         0.456874        -0.350265
 C         0.050702        -0.302317         0.099470
 H         0.849670         2.945152         1.266380
 H         1.944701         4.006076         0.133835
 H         0.493591         3.283384        -0.419864
 H         3.999136         2.049481         0.859683
 H         2.836370         1.363133         2.109288
 H         2.905759        -1.018798        -1.249193
 H         3.119186         1.792343        -2.133854
 H        -0.057603        -0.350957         1.265816
 H        -0.953432        -0.023629        -0.270584
 H         0.187608        -1.295689        -0.438912
