19
Iteration:  2918
 C         1.324799         3.119397         0.263193
 C         1.961405         1.760214         0.112420
 C         3.075725         1.421117         1.044967
 O         3.600758         0.061596         0.434263
 C         2.684008        -0.048129        -0.685454
 C         2.449633         1.276247        -1.415785
 O         1.204925         0.886334        -1.851458
 C         1.241927         0.429805        -0.344767
 C         0.076882        -0.283846         0.127903
 H         0.679343         3.205567         1.069982
 H         2.095605         3.822122         0.398822
 H         0.702383         3.243253        -0.688666
 H         3.869546         2.112928         0.972659
 H         2.785250         1.196443         2.059844
 H         2.750497        -1.041426        -1.217193
 H         3.009646         1.984707        -2.097659
 H         0.329873        -0.524759         1.156699
 H        -0.896761         0.177228        -0.076523
 H         0.093475        -1.261546        -0.313167
