19
Iteration:   861charge 0 multiplicity 1
 C         1.259957         3.032437         0.173402
 C         2.075637         1.726148         0.021423
 C         3.012852         1.220749         1.137597
 O         3.662938         0.111373         0.402570
 C         2.837119        -0.043825        -0.793936
 C         2.416796         1.350955        -1.446723
 O         1.074210         0.983714        -1.689345
 C         1.290924         0.361639        -0.436340
 C         0.073451        -0.193457         0.219724
 H         0.482870         3.085039         1.045219
 H         1.955096         3.882923         0.129222
 H         0.662966         3.207744        -0.731362
 H         3.797507         1.753588         1.565432
 H         2.407796         0.828560         2.056803
 H         3.123975        -0.911473        -1.391802
 H         3.064165         1.980939        -2.031482
 H         0.311034        -0.566302         1.282370
 H        -0.592971         0.675694         0.439129
 H        -0.521187        -0.734629        -0.460040
