19
Iteration:  2884
 C         1.279132         3.019910         0.235213
 C         2.106426         1.844186        -0.023506
 C         3.131714         1.443741         0.968448
 O         3.455818        -0.043455         0.588083
 C         2.706812        -0.052016        -0.671701
 C         2.497890         1.336680        -1.418318
 O         1.121815         0.981238        -1.780662
 C         1.292550         0.413800        -0.449970
 C         0.112834        -0.318677         0.161650
 H         0.757304         2.838927         1.183531
 H         1.734008         3.938324         0.266538
 H         0.511248         3.210825        -0.571928
 H         4.004138         2.019960         0.971543
 H         2.693245         1.532162         1.972402
 H         2.898310        -0.990412        -1.408437
 H         3.050322         2.027063        -2.143179
 H         0.368517        -0.422128         1.192030
 H        -0.874960         0.105150         0.153376
 H         0.167175        -1.337022        -0.333773
