19
Iteration:  4048charge 0 multiplicity 1
 C         1.162608         3.010498         0.197362
 C         1.965090         1.702313         0.070664
 C         3.051367         1.246247         1.109860
 O         3.645846         0.044105         0.381614
 C         2.839314        -0.062579        -0.726275
 C         2.498229         1.373105        -1.336242
 O         1.221309         0.931547        -1.835104
 C         1.216886         0.455082        -0.452696
 C         0.039971        -0.121040         0.217033
 H         0.788313         3.102196         1.275743
 H         1.841372         3.775760         0.030136
 H         0.361496         2.984161        -0.471293
 H         3.755859         2.029307         1.369144
 H         2.617250         1.038824         2.088759
 H         3.131368        -0.868342        -1.424538
 H         3.196229         2.064427        -1.949774
 H         0.337457        -0.514178         1.181102
 H        -0.633537         0.726701         0.398588
 H        -0.465189        -1.016188        -0.385614
