19
Iteration:  3046
 C         1.262303         3.143359         0.234155
 C         2.035321         1.830278         0.028647
 C         3.129442         1.331864         1.037105
 O         3.481876         0.064065         0.459086
 C         2.742197         0.009665        -0.687432
 C         2.519854         1.306027        -1.439498
 O         1.152735         0.883069        -1.797911
 C         1.306072         0.395654        -0.375942
 C         0.074815        -0.325447         0.150654
 H         0.590225         2.870298         1.118258
 H         1.832919         4.010808         0.394185
 H         0.671732         3.277346        -0.642634
 H         4.080875         1.912143         1.289173
 H         2.650196         1.102501         2.054008
 H         2.910672        -1.040318        -1.123913
 H         3.185973         1.782209        -2.173568
 H         0.134588        -0.524232         1.180246
 H        -0.608637         0.485807         0.327603
 H        -0.360215        -1.147111        -0.558090
