19
Iteration:   983charge 0 multiplicity 1
 C         1.231410         2.992573         0.292563
 C         1.964182         1.758384         0.071816
 C         3.141164         1.352991         0.948478
 O         3.604914         0.071087         0.385172
 C         2.709673        -0.102444        -0.676806
 C         2.483652         1.338979        -1.316497
 O         1.169100         0.937310        -1.819444
 C         1.264129         0.447146        -0.403144
 C         0.079561        -0.198953         0.203406
 H         0.755499         3.020596         1.221473
 H         1.955671         3.841121         0.163168
 H         0.430305         3.058097        -0.543391
 H         3.854307         2.132324         0.805596
 H         3.019129         1.106019         2.043192
 H         2.897511        -0.919031        -1.200980
 H         3.297918         1.816117        -1.997291
 H         0.083931        -0.273576         1.296735
 H        -0.880132         0.358645        -0.108766
 H        -0.200327        -1.159281        -0.350494
