19
Iteration:   368
 C         1.303868         3.067703         0.331855
 C         1.978519         1.743613         0.077541
 C         3.233932         1.419235         0.972538
 O         3.450548         0.075602         0.518874
 C         2.613160        -0.092598        -0.688470
 C         2.522637         1.333176        -1.349844
 O         1.172624         1.048771        -1.890833
 C         1.236048         0.398841        -0.460605
 C         0.112672        -0.415426         0.113950
 H         0.606724         2.944665         1.206124
 H         1.976156         3.818377         0.601487
 H         0.679253         3.421971        -0.563497
 H         4.019727         2.124541         0.803306
 H         3.171828         1.265618         2.057811
 H         2.910223        -0.907241        -1.205508
 H         3.243555         1.702841        -2.098956
 H         0.177482        -0.430487         1.203565
 H        -0.792180         0.164048         0.006816
 H         0.101337        -1.365871        -0.207120
