19
Iteration:  2095
 C         1.133329         2.920391         0.252183
 C         2.020971         1.785832         0.013679
 C         3.089136         1.379426         1.050285
 O         3.544187         0.068009         0.454732
 C         2.705414        -0.111963        -0.700777
 C         2.551043         1.383109        -1.415602
 O         1.238086         0.927727        -1.857975
 C         1.292374         0.400143        -0.461140
 C         0.069689        -0.159747         0.295468
 H         0.604822         2.883674         1.241196
 H         1.828727         3.650721         0.129736
 H         0.423032         3.161346        -0.612302
 H         4.002206         2.015343         1.185836
 H         2.601743         1.232848         1.984029
 H         3.108670        -0.954423        -1.297333
 H         3.161624         1.909845        -2.145909
 H         0.410259        -0.272814         1.316041
 H        -0.693590         0.526581         0.130855
 H        -0.223958        -1.072569        -0.073970
