19
Iteration:  1081
 C         1.219265         3.047868         0.270756
 C         2.036123         1.828813        -0.068431
 C         3.203680         1.402989         0.879495
 O         3.392868        -0.032306         0.591572
 C         2.728157        -0.076119        -0.633597
 C         2.559586         1.376023        -1.439492
 O         1.102298         0.968238        -1.748720
 C         1.284424         0.457761        -0.434711
 C         0.184782        -0.322165         0.176281
 H         0.834235         2.867063         1.231587
 H         1.866733         3.877964         0.512421
 H         0.339777         3.271484        -0.430522
 H         4.100786         1.861078         0.636595
 H         2.834334         1.674082         1.965515
 H         2.948667        -0.860113        -1.180832
 H         3.040325         1.864429        -2.374681
 H         0.510685        -0.902908         1.045694
 H        -0.816778         0.235583         0.408029
 H        -0.096902        -1.264669        -0.480248
