19
Iteration:  3254charge 0 multiplicity 1
 C         1.318456         3.093506         0.223209
 C         2.017299         1.747623         0.052991
 C         3.080295         1.357749         1.007743
 O         3.499644         0.034544         0.513496
 C         2.743068        -0.033634        -0.735199
 C         2.494995         1.304256        -1.395609
 O         1.218753         0.962952        -1.781108
 C         1.221808         0.453384        -0.411577
 C         0.068930        -0.338586         0.134629
 H         0.867189         3.084372         1.286719
 H         1.938398         4.017847         0.163791
 H         0.518079         3.263027        -0.533062
 H         3.928511         2.064843         1.138095
 H         2.615008         1.267930         1.948680
 H         3.000865        -0.726570        -1.440653
 H         3.140566         1.914276        -2.000444
 H         0.181677        -0.573515         1.151125
 H        -0.803594         0.276982         0.200316
 H        -0.137032        -1.382926        -0.327655
