19
Iteration:   313
 C         1.289565         3.087593         0.257923
 C         2.003129         1.737417         0.117340
 C         2.997976         1.214672         1.166613
 O         3.647950         0.167242         0.363820
 C         2.851609        -0.033190        -0.757492
 C         2.457767         1.360740        -1.362290
 O         1.148505         0.824972        -1.822730
 C         1.300900         0.311031        -0.439586
 C         0.027387        -0.097184         0.132683
 H         0.810639         3.314007         1.256486
 H         1.844227         3.902094        -0.091361
 H         0.347003         2.911855        -0.439553
 H         3.607867         1.978637         1.551681
 H         2.545691         0.584917         2.005465
 H         3.083908        -0.829431        -1.406659
 H         2.933674         2.011022        -2.148798
 H         0.162751        -0.414856         1.263646
 H        -0.678985         0.771330         0.168597
 H        -0.449314        -0.901120        -0.384037
