19
Iteration:  1669
 C         1.192710         3.067467         0.316208
 C         2.020414         1.823947         0.038877
 C         3.108807         1.382535         0.960812
 O         3.489403         0.018571         0.533729
 C         2.742019        -0.072526        -0.651629
 C         2.585282         1.252500        -1.431114
 O         1.204366         0.918243        -1.874174
 C         1.195407         0.516170        -0.470257
 C         0.133510        -0.274134         0.198919
 H         0.853461         3.084144         1.379043
 H         1.772892         3.938503         0.068409
 H         0.354352         3.148803        -0.535924
 H         3.880697         2.104730         0.880635
 H         2.660080         1.369005         2.028311
 H         2.899649        -1.038455        -1.289952
 H         3.121719         1.856848        -2.141614
 H         0.334152        -0.354670         1.249240
 H        -0.867378         0.099667         0.023880
 H         0.234202        -1.369669         0.060607
