19
Iteration:  1046charge 0 multiplicity 1
 C         1.246411         3.035799         0.221708
 C         1.967076         1.727741         0.104298
 C         3.012342         1.249236         1.089643
 O         3.579194         0.139925         0.317477
 C         2.672054        -0.028842        -0.704716
 C         2.549692         1.355191        -1.376619
 O         1.200768         0.896065        -1.874236
 C         1.260600         0.424631        -0.465012
 C         0.145452        -0.211872         0.323668
 H         0.565916         3.075839         1.128335
 H         2.042202         3.739943         0.313664
 H         0.702973         3.380921        -0.644361
 H         3.743852         2.005157         1.282481
 H         2.651211         0.862069         2.102255
 H         2.915254        -0.928658        -1.309580
 H         3.128055         1.639492        -2.221829
 H         0.500513        -0.001690         1.371338
 H        -0.765958         0.448645         0.280157
 H        -0.124559        -1.240247         0.099367
