19
Iteration:  4928charge 0 multiplicity 1
 C         1.185303         2.953817         0.252471
 C         2.065967         1.805038         0.031774
 C         3.094728         1.277461         1.070618
 O         3.432456         0.021154         0.485238
 C         2.738449        -0.000841        -0.757073
 C         2.555915         1.387430        -1.392052
 O         1.188057         0.960290        -1.805849
 C         1.332242         0.432273        -0.461306
 C         0.117196        -0.230584         0.206326
 H         0.648482         2.954741         1.218860
 H         1.774201         3.954148         0.123352
 H         0.396204         3.162374        -0.468811
 H         3.930937         1.950831         1.144053
 H         2.765111         1.220188         2.139304
 H         3.118717        -0.845569        -1.372020
 H         3.080918         1.783381        -2.180718
 H         0.394058        -0.704118         1.109685
 H        -0.672152         0.527603         0.368670
 H        -0.360271        -1.022709        -0.542808
