19
Iteration:  2104charge 0 multiplicity 1
 C         1.159990         2.976903         0.190255
 C         2.004595         1.754562        -0.011137
 C         3.035119         1.270628         1.002984
 O         3.621636         0.097642         0.432225
 C         2.727931        -0.030767        -0.671768
 C         2.577271         1.325883        -1.345323
 O         1.228663         0.944942        -1.874595
 C         1.273006         0.421995        -0.427700
 C         0.059217        -0.175289         0.317639
 H         0.648617         2.876180         1.226064
 H         1.709826         3.925905         0.243318
 H         0.364949         2.968800        -0.526743
 H         3.838832         1.977443         1.087100
 H         2.639847         1.103282         1.964856
 H         2.995559        -0.882112        -1.241830
 H         3.181448         1.902342        -1.961818
 H         0.145206        -0.290495         1.336952
 H        -0.797736         0.481603         0.203687
 H        -0.286976        -1.091180        -0.100815
