19
Iteration:  2059
 C         1.138362         2.999512         0.301558
 C         2.031508         1.786304        -0.094728
 C         3.145762         1.425241         0.921764
 O         3.429906        -0.009012         0.564393
 C         2.731363        -0.087660        -0.659672
 C         2.574831         1.409431        -1.416285
 O         1.197297         0.899696        -1.852935
 C         1.283836         0.489499        -0.409207
 C         0.146353        -0.266813         0.234552
 H         0.563602         2.993713         1.290383
 H         1.878240         3.797338         0.527139
 H         0.497595         3.344587        -0.411777
 H         4.045312         1.985614         0.853466
 H         2.775503         1.404902         1.932427
 H         2.928029        -0.926410        -1.298459
 H         3.251649         1.756496        -2.156037
 H         0.354136        -0.586858         1.185230
 H        -0.829142         0.245662         0.373536
 H        -0.044662        -1.153554        -0.398162
