19
Iteration:  2296charge 0 multiplicity 1
 C         1.243058         2.970316         0.224172
 C         2.019923         1.705550         0.037667
 C         3.099180         1.406491         1.065990
 O         3.586971         0.110364         0.464405
 C         2.761942        -0.084836        -0.759112
 C         2.540705         1.308007        -1.439911
 O         1.136033         0.877390        -1.791097
 C         1.256555         0.441790        -0.404628
 C         0.033930        -0.165275         0.224395
 H         0.776234         2.948434         1.199467
 H         1.987326         3.861193         0.451111
 H         0.413126         3.200269        -0.555119
 H         3.918474         2.109476         1.267128
 H         2.563745         1.183296         1.990706
 H         3.083842        -0.875860        -1.368810
 H         3.170736         1.921015        -2.081487
 H         0.032343        -0.413619         1.236519
 H        -0.822256         0.473375         0.051005
 H        -0.071448        -1.019815        -0.528358
