19
Iteration:  3208charge 0 multiplicity 1
 C         1.190860         3.045915         0.238158
 C         2.016495         1.819895         0.039013
 C         3.037436         1.319133         1.060680
 O         3.607381         0.070495         0.370044
 C         2.797629        -0.035794        -0.678701
 C         2.543407         1.327208        -1.360326
 O         1.201189         0.856100        -1.803643
 C         1.264177         0.416565        -0.361962
 C        -0.025255        -0.178962         0.151085
 H         0.607364         3.187404         1.165299
 H         2.136606         3.792348         0.442761
 H         0.854112         3.523316        -0.617242
 H         3.857418         1.969741         1.405234
 H         2.504572         0.955005         1.868024
 H         3.043757        -1.034612        -1.222130
 H         3.073147         1.778320        -2.183272
 H         0.214904        -0.822394         0.989863
 H        -0.843560         0.407279         0.504208
 H        -0.198864        -0.969788        -0.654427
