19
Iteration:   750
 C         1.313061         3.136607         0.176130
 C         2.001786         1.799241         0.086619
 C         3.037775         1.216267         1.107461
 O         3.657852         0.128133         0.267601
 C         2.720978        -0.049356        -0.726943
 C         2.506992         1.292463        -1.325488
 O         1.190563         0.988959        -1.760202
 C         1.201270         0.464813        -0.381225
 C         0.031662        -0.346071         0.202118
 H         0.666355         3.076972         1.214953
 H         1.981900         3.986163         0.248539
 H         0.650383         3.334031        -0.618153
 H         3.721718         1.981863         1.450692
 H         2.604760         0.644183         2.035879
 H         2.783499        -0.969532        -1.440997
 H         3.246879         1.689401        -1.962473
 H         0.269047        -0.591478         1.318303
 H        -0.896301         0.193099         0.087933
 H        -0.277483        -1.198734        -0.304229
