19
Iteration:   436
 C         1.226937         2.975279         0.205769
 C         1.992883         1.702314        -0.015898
 C         2.961614         1.165101         1.027950
 O         3.632909         0.153577         0.382776
 C         2.720694        -0.019281        -0.711658
 C         2.586683         1.310433        -1.342567
 O         1.207237         1.082247        -1.843115
 C         1.224992         0.412934        -0.459936
 C         0.092926        -0.218529         0.339355
 H         0.834063         3.037544         1.280534
 H         2.028691         3.815239         0.168558
 H         0.463583         3.150131        -0.511621
 H         3.510236         2.004780         1.330854
 H         2.438538         0.801095         2.026492
 H         2.880276        -0.984291        -1.338591
 H         3.280467         1.858175        -1.938936
 H         0.352119        -0.962547         1.201611
 H        -0.515808         0.505559         0.868548
 H        -0.309189        -0.751426        -0.429255
