19
Iteration:  4722
 C         1.326003         3.080472         0.257991
 C         1.948783         1.780028         0.123363
 C         3.034353         1.323896         1.112979
 O         3.559666         0.088472         0.409338
 C         2.748393        -0.015904        -0.660111
 C         2.514883         1.296287        -1.360796
 O         1.191880         0.980059        -1.896890
 C         1.307818         0.385397        -0.422844
 C         0.016499        -0.317818         0.128518
 H         0.607978         3.237229         1.046910
 H         2.133837         3.898526         0.284193
 H         0.738847         3.199556        -0.581304
 H         3.862518         2.072476         1.186330
 H         2.864271         0.981240         2.135382
 H         3.018425        -0.966193        -1.245424
 H         3.054504         1.958622        -1.991832
 H         0.202072        -0.807361         1.052565
 H        -0.901492         0.270627         0.216621
 H        -0.284084        -1.147144        -0.634873
