19
Iteration:  4230charge 0 multiplicity 1
 C         1.170325         2.945036         0.346198
 C         1.950631         1.802422         0.056240
 C         3.191660         1.390218         0.988004
 O         3.450404         0.017609         0.577602
 C         2.757136        -0.096671        -0.821982
 C         2.594076         1.319772        -1.338243
 O         1.229224         0.949541        -1.864581
 C         1.234620         0.420030        -0.510166
 C         0.110134        -0.172319         0.182880
 H         0.554371         2.703074         1.273685
 H         1.774792         3.947180         0.475948
 H         0.327453         3.223297        -0.314087
 H         4.001202         2.093649         0.877679
 H         2.861795         1.559864         1.993246
 H         3.064038        -0.907093        -1.419748
 H         3.108756         1.884619        -2.157040
 H         0.403295        -0.623841         1.112137
 H        -0.752142         0.501523         0.331460
 H        -0.237924        -0.982598        -0.597638
