19
Iteration:  4079charge 0 multiplicity 1
 C         1.137054         2.904033         0.291029
 C         2.042096         1.810136         0.023412
 C         3.166700         1.428351         1.059096
 O         3.477896         0.005783         0.439464
 C         2.724793        -0.114425        -0.727280
 C         2.551275         1.275612        -1.409339
 O         1.201401         0.981301        -1.797035
 C         1.328317         0.520164        -0.406085
 C         0.089890        -0.182101         0.146430
 H         0.647588         2.661607         1.286165
 H         1.524799         3.843451         0.516700
 H         0.354022         2.995378        -0.426591
 H         4.179834         1.979465         1.019811
 H         2.641839         1.418835         2.047119
 H         3.049088        -0.918931        -1.319642
 H         3.284999         1.795421        -2.177379
 H         0.165532        -0.571294         1.108052
 H        -0.738289         0.537743         0.228584
 H        -0.374382        -1.054988        -0.472395
