19
Iteration:  3256charge 0 multiplicity 1
 C         1.322033         3.108522         0.219382
 C         2.006230         1.753110         0.067511
 C         3.074151         1.342300         0.988285
 O         3.484650         0.017926         0.513771
 C         2.737089        -0.015740        -0.747728
 C         2.507811         1.306412        -1.388370
 O         1.224866         0.955542        -1.783167
 C         1.239738         0.453064        -0.394726
 C         0.078520        -0.338370         0.137929
 H         0.880431         3.094500         1.290621
 H         1.864130         3.999253         0.171585
 H         0.463326         3.249973        -0.563019
 H         3.866251         2.123563         1.076065
 H         2.681635         1.261168         2.037045
 H         3.027568        -0.754737        -1.420971
 H         3.127979         1.941603        -2.062920
 H         0.224363        -0.546204         1.233216
 H        -0.870312         0.278961         0.160782
 H        -0.121635        -1.358336        -0.379830
