19
Iteration:   916charge 0 multiplicity 1
 C         1.329718         3.133939         0.277267
 C         2.017615         1.776755        -0.036346
 C         3.061990         1.337331         1.029143
 O         3.506729         0.031600         0.493881
 C         2.726899        -0.049114        -0.683560
 C         2.499521         1.315944        -1.469161
 O         1.110911         0.987255        -1.823149
 C         1.236409         0.421521        -0.420444
 C         0.170202        -0.352944         0.245874
 H         0.781205         3.154927         1.239093
 H         1.971061         4.030213         0.310317
 H         0.560128         3.336261        -0.502183
 H         3.927597         1.957844         0.951350
 H         2.694060         1.258522         2.118379
 H         2.904914        -0.926176        -1.206936
 H         3.210862         1.885736        -2.101738
 H         0.618467        -1.240845         0.826647
 H        -0.629815         0.235490         0.762003
 H        -0.351309        -0.814433        -0.624786
