19
Iteration:  1644charge 0 multiplicity 1
 C         1.169342         3.011965         0.244563
 C         2.041379         1.815588        -0.010559
 C         3.193743         1.389096         0.906771
 O         3.313830         0.017690         0.596793
 C         2.634984        -0.060399        -0.655845
 C         2.580445         1.337803        -1.373185
 O         1.230453         1.022990        -1.949624
 C         1.268002         0.436239        -0.396162
 C         0.224088        -0.346252         0.242655
 H         1.150681         3.082309         1.442255
 H         1.679778         3.922042        -0.127792
 H         0.228785         2.979659        -0.217895
 H         4.066100         2.018659         0.602302
 H         2.925002         1.615870         1.997848
 H         2.746524        -1.059614        -1.177303
 H         3.328556         1.849805        -1.873874
 H         0.517248        -0.666007         1.210706
 H        -0.750744         0.184370         0.257174
 H         0.129955        -1.403237        -0.151507
