19
Iteration:  3199charge 0 multiplicity 1
 C         1.233092         3.108423         0.210752
 C         2.044074         1.771658         0.015112
 C         3.064210         1.274608         1.033259
 O         3.607594         0.046112         0.436970
 C         2.765861        -0.034795        -0.678324
 C         2.542916         1.434757        -1.355038
 O         1.197185         0.829003        -1.822118
 C         1.283320         0.398137        -0.414960
 C        -0.019299        -0.198936         0.209879
 H         0.484787         2.904479         1.092854
 H         1.825899         3.971652         0.561381
 H         0.580054         3.411148        -0.628081
 H         3.861487         2.033124         1.250203
 H         2.566563         0.933100         1.937890
 H         3.006796        -0.842792        -1.311659
 H         3.132305         2.009421        -2.052957
 H         0.115797        -0.866552         1.032526
 H        -0.795011         0.534450         0.440971
 H        -0.534629        -0.959614        -0.592304
