19
Iteration:   164
 C         1.260242         3.076953         0.264510
 C         2.018001         1.787497         0.043252
 C         2.947812         1.282444         1.117865
 O         3.646061         0.151515         0.423739
 C         2.818575        -0.062027        -0.745409
 C         2.469286         1.326217        -1.399925
 O         1.161386         0.809018        -1.781973
 C         1.301235         0.390102        -0.423220
 C         0.077712        -0.175587         0.107634
 H         1.066182         3.293990         1.354733
 H         1.868866         3.938704        -0.186003
 H         0.360525         3.064558        -0.293468
 H         3.654977         2.062568         1.663210
 H         2.324192         0.943484         1.968811
 H         3.068740        -0.788130        -1.431238
 H         2.998524         1.774877        -2.174681
 H         0.176871        -0.357096         1.284038
 H        -0.808717         0.525423         0.024135
 H        -0.254521        -1.157545        -0.238959
