19
Iteration:  2706
 C         1.269098         3.075398         0.201087
 C         1.973998         1.780835        -0.013045
 C         3.034258         1.261788         1.063573
 O         3.529138         0.091242         0.369023
 C         2.678306        -0.010002        -0.634753
 C         2.507079         1.348557        -1.378566
 O         1.194233         0.933695        -1.793692
 C         1.263102         0.423066        -0.415263
 C         0.176823        -0.260868         0.215985
 H         0.768419         3.213351         1.225669
 H         2.043175         3.836639         0.091654
 H         0.529052         3.216095        -0.473198
 H         3.883918         1.869551         1.261361
 H         2.710816         0.969783         2.088709
 H         2.791874        -0.991242        -1.242893
 H         3.265985         1.721978        -2.031834
 H         0.401396        -0.434444         1.334290
 H        -0.782811         0.245357         0.046723
 H         0.061601        -1.287220        -0.160866
