19
Iteration:  3225
 C         1.348685         3.103562         0.260189
 C         2.000691         1.699219         0.090223
 C         3.010045         1.283526         1.077441
 O         3.640608         0.194407         0.438598
 C         2.698246        -0.081792        -0.660726
 C         2.537734         1.226835        -1.443585
 O         1.127494         0.933226        -1.804070
 C         1.247313         0.470555        -0.412885
 C         0.086901        -0.244892         0.092216
 H         0.638183         2.931744         1.082568
 H         1.891236         3.973952         0.466320
 H         0.602310         3.261371        -0.606463
 H         3.680951         2.160203         1.155592
 H         2.580537         0.923416         2.116204
 H         2.884283        -1.049449        -1.198832
 H         3.236269         1.769552        -2.144493
 H         0.106719        -0.840377         1.076967
 H        -0.702485         0.562795         0.246384
 H        -0.275764        -1.035909        -0.563562
