19
Iteration:  2300charge 0 multiplicity 1
 C         1.228333         2.983597         0.224710
 C         2.045296         1.710476         0.016971
 C         3.092345         1.432186         1.058511
 O         3.573036         0.085533         0.461550
 C         2.751935        -0.082283        -0.724904
 C         2.530075         1.321686        -1.405821
 O         1.124785         0.892443        -1.831821
 C         1.293849         0.435168        -0.396180
 C         0.034247        -0.179818         0.225749
 H         0.856039         2.866740         1.297279
 H         1.947968         3.838830         0.431834
 H         0.552350         3.242333        -0.504678
 H         3.965965         2.104421         1.121065
 H         2.554915         1.197451         2.058977
 H         3.153427        -0.880422        -1.382575
 H         3.149173         1.852960        -2.135773
 H        -0.030564        -0.556293         1.299804
 H        -0.897984         0.454102         0.009678
 H        -0.047128        -1.041506        -0.443046
