19
Iteration:  3289
 C         1.241620         3.076530         0.197251
 C         2.044222         1.797296         0.047071
 C         3.180327         1.323635         1.005666
 O         3.437612        -0.067785         0.575291
 C         2.657325        -0.032735        -0.712464
 C         2.496157         1.368182        -1.343395
 O         1.201277         0.993623        -1.864184
 C         1.235035         0.461469        -0.465218
 C         0.176818        -0.304149         0.177514
 H         0.788309         3.044063         1.272364
 H         1.781572         3.958745         0.094117
 H         0.255367         3.021502        -0.459428
 H         3.993830         2.064203         1.035023
 H         2.720064         1.217675         2.002578
 H         2.944634        -0.879753        -1.309633
 H         3.043639         2.031243        -2.080927
 H         0.726854        -0.282528         1.154959
 H        -0.803755         0.235304         0.137194
 H         0.028655        -1.329021        -0.281874
