19
Iteration:   388charge 0 multiplicity 1
 C         1.238777         3.054314         0.321438
 C         2.024886         1.811669         0.016611
 C         3.133966         1.331174         0.897472
 O         3.312350        -0.088819         0.566694
 C         2.755877        -0.018992        -0.709708
 C         2.516513         1.443755        -1.406571
 O         1.181288         0.958130        -1.811442
 C         1.297628         0.517256        -0.445465
 C         0.200324        -0.355254         0.191333
 H         0.585389         2.907525         1.168050
 H         1.865753         3.830529         0.562949
 H         0.584114         3.328638        -0.570124
 H         4.220093         1.704093         0.581844
 H         2.891027         1.593329         1.879734
 H         2.922042        -0.840624        -1.342018
 H         3.211305         2.094217        -2.037451
 H         0.370938        -0.550714         1.157878
 H        -0.763608         0.089068         0.288814
 H         0.271574        -1.293808        -0.333697
