19
Iteration:  2624
 C         1.114952         3.030902         0.295633
 C         2.085483         1.798448        -0.008233
 C         3.255172         1.423273         1.050515
 O         3.521403         0.046211         0.492096
 C         2.667269        -0.092557        -0.703101
 C         2.551128         1.286633        -1.393494
 O         1.190605         0.901989        -1.878785
 C         1.249749         0.473537        -0.416409
 C         0.042144        -0.233127         0.204155
 H         0.735694         2.685247         1.216605
 H         1.681610         3.991435         0.449352
 H         0.359885         3.361601        -0.562599
 H         4.192513         1.973028         0.730432
 H         3.101019         1.193556         2.089001
 H         2.717973        -1.000365        -1.262224
 H         3.150098         2.005521        -2.042816
 H         0.289224        -0.804023         1.110935
 H        -0.843211         0.369036         0.534270
 H        -0.284503        -1.011400        -0.607619
