19
Iteration:  2600charge 0 multiplicity 1
 C         1.229271         3.022321         0.283406
 C         2.028720         1.730840         0.029712
 C         3.122621         1.397650         0.903611
 O         3.435968         0.030791         0.549135
 C         2.721293        -0.063383        -0.649788
 C         2.526709         1.344224        -1.422618
 O         1.173218         0.958606        -1.794225
 C         1.301270         0.451081        -0.417345
 C         0.120863        -0.250635         0.173244
 H         0.710865         2.876935         1.212230
 H         1.812682         3.894269         0.325674
 H         0.539527         3.199679        -0.697616
 H         3.998301         1.974373         0.598821
 H         2.949335         1.296484         1.941229
 H         3.005201        -0.906054        -1.358223
 H         3.183576         1.874935        -2.191725
 H         0.494271        -0.733884         1.000079
 H        -0.641100         0.338898         0.616604
 H        -0.331330        -1.050412        -0.504054
