19
Iteration:  2055charge 0 multiplicity 1
 C         1.166337         3.018219         0.308246
 C         2.020216         1.786147        -0.059587
 C         3.159172         1.451306         0.927919
 O         3.434563        -0.009654         0.540446
 C         2.700024        -0.068312        -0.657433
 C         2.551669         1.382197        -1.413675
 O         1.226437         0.903318        -1.851053
 C         1.303790         0.468013        -0.418377
 C         0.121976        -0.269785         0.216180
 H         0.553839         2.894651         1.184168
 H         1.920984         3.922912         0.497980
 H         0.416155         3.400745        -0.496180
 H         4.079873         2.077693         0.867363
 H         2.716203         1.371676         1.986997
 H         2.835703        -1.072119        -1.233561
 H         3.289698         1.868682        -2.180916
 H         0.473800        -0.681870         1.301093
 H        -0.935920         0.117253         0.416147
 H        -0.123008        -1.231665        -0.396457
