19
Iteration:   488
 C         1.246470         3.022630         0.329230
 C         2.028206         1.760739         0.008188
 C         3.150382         1.390854         0.972894
 O         3.608826         0.027675         0.425009
 C         2.740237        -0.073559        -0.670012
 C         2.477109         1.383926        -1.355362
 O         1.154929         0.915533        -1.772270
 C         1.302059         0.401878        -0.331669
 C        -0.034394        -0.244733         0.047055
 H         0.736659         2.964470         1.320947
 H         1.927232         3.812822         0.383939
 H         0.527192         3.267821        -0.451648
 H         3.970678         2.229095         1.039906
 H         2.839904         1.215209         1.957079
 H         2.903386        -0.979803        -1.269713
 H         3.042201         2.029327        -2.019639
 H         0.103349        -1.080144         0.758802
 H        -0.632876         0.546520         0.557289
 H        -0.473581        -0.621756        -0.904969
