19
Iteration:  2208charge 0 multiplicity 1
 C         1.252911         3.042749         0.266864
 C         1.995373         1.816072        -0.037515
 C         3.113875         1.370095         0.939210
 O         3.381785         0.017160         0.555205
 C         2.714755        -0.002697        -0.668850
 C         2.582008         1.347234        -1.449501
 O         1.187196         0.940893        -1.785646
 C         1.262786         0.494204        -0.431252
 C         0.162367        -0.353648         0.243756
 H         0.754488         2.885456         1.194510
 H         1.823238         4.036757         0.241311
 H         0.528969         3.197617        -0.632990
 H         4.015065         1.956441         0.649792
 H         2.921199         1.352233         2.053197
 H         3.029672        -0.913411        -1.158494
 H         3.224079         1.750832        -2.282191
 H         0.555355        -0.952075         1.080824
 H        -0.752831         0.177121         0.470154
 H        -0.136819        -1.204279        -0.458645
