19
Iteration:   233charge 0 multiplicity 1
 C         1.223758         3.063087         0.212988
 C         2.034709         1.802086         0.007719
 C         3.127168         1.379826         0.955815
 O         3.394313        -0.011562         0.578298
 C         2.727668        -0.019398        -0.679753
 C         2.477044         1.366957        -1.381457
 O         1.174212         0.983456        -1.805318
 C         1.290091         0.417675        -0.380752
 C         0.191363        -0.388511         0.172857
 H         0.348275         3.048240         0.837384
 H         1.976747         3.816412         0.629516
 H         0.994882         3.472927        -0.785443
 H         4.096280         1.953324         0.665566
 H         2.989302         1.569239         1.988562
 H         2.861320        -0.989718        -1.383656
 H         3.070064         2.107643        -2.096126
 H         0.493566        -0.903029         0.991337
 H        -0.662974         0.283237         0.376687
 H        -0.051553        -1.191577        -0.653393
