19
Iteration:   275
 C         1.143093         2.962296         0.279847
 C         2.035455         1.759856         0.030949
 C         3.037251         1.377676         1.018097
 O         3.457938         0.024634         0.480076
 C         2.682254        -0.103108        -0.726991
 C         2.566466         1.302216        -1.413905
 O         1.267905         1.049371        -1.936207
 C         1.294160         0.480794        -0.469556
 C         0.165194        -0.239235         0.327784
 H         0.759320         2.857059         1.292223
 H         1.496230         4.044993         0.237916
 H         0.333938         2.822149        -0.363010
 H         4.015361         2.014503         1.025282
 H         2.661240         1.302153         2.021193
 H         3.018761        -1.073754        -1.220564
 H         3.303786         1.789188        -2.065537
 H         0.548873        -0.699715         1.195689
 H        -0.501571         0.498778         0.740194
 H        -0.254499        -1.041603        -0.310221
