19
Iteration:  1692charge 0 multiplicity 1
 C         1.299495         3.029014         0.202357
 C         1.981396         1.784405         0.007274
 C         3.031833         1.309458         1.096615
 O         3.601015         0.162119         0.409569
 C         2.761139        -0.055237        -0.648436
 C         2.481672         1.374394        -1.420852
 O         1.179965         0.822987        -1.773943
 C         1.288757         0.328973        -0.388321
 C         0.057145        -0.188055         0.173917
 H         0.741533         2.893184         1.113746
 H         2.061178         3.791880         0.418663
 H         0.679252         3.471104        -0.739773
 H         3.744808         2.052321         1.338456
 H         2.427409         0.992612         2.015912
 H         2.991290        -0.853121        -1.367711
 H         2.949029         1.963165        -2.262249
 H        -0.076236        -0.246502         1.253508
 H        -0.557918         0.561093        -0.299696
 H        -0.186756        -1.206771        -0.092137
