19
Iteration:  1371
 C         1.167600         2.944971         0.195466
 C         2.038236         1.813485         0.044412
 C         3.228204         1.403685         0.864397
 O         3.370013         0.006033         0.598643
 C         2.714440        -0.082917        -0.642436
 C         2.520419         1.380421        -1.382292
 O         1.184067         0.946179        -1.828075
 C         1.263191         0.474853        -0.470425
 C         0.185460        -0.240483         0.205182
 H         0.425869         2.471834         0.874888
 H         1.600658         3.821454         0.605087
 H         0.752043         3.249186        -0.671505
 H         4.125683         1.863256         0.596336
 H         3.113739         1.541615         1.992335
 H         2.914085        -1.025803        -1.219355
 H         3.115517         1.984000        -1.974864
 H         0.665475        -0.691144         1.144632
 H        -0.581759         0.435785         0.701638
 H        -0.331290        -1.032534        -0.330916
