19
Iteration:  2707charge 0 multiplicity 1
 C         1.274252         3.069727         0.201452
 C         1.985698         1.782920        -0.003520
 C         3.045371         1.259631         1.060237
 O         3.519075         0.097769         0.378602
 C         2.680813        -0.004263        -0.632180
 C         2.507359         1.344345        -1.382395
 O         1.193922         0.934720        -1.792630
 C         1.257158         0.425098        -0.424608
 C         0.171392        -0.268629         0.219002
 H         0.783788         3.227119         1.204159
 H         2.012223         3.810972         0.125576
 H         0.491977         3.209118        -0.486896
 H         3.895364         1.878155         1.236330
 H         2.690652         0.975185         2.085653
 H         2.770320        -1.000935        -1.272203
 H         3.258159         1.735509        -2.084356
 H         0.412404        -0.394308         1.303661
 H        -0.771896         0.225482         0.065763
 H         0.064165        -1.307824        -0.194697
