19
Iteration:  4190
 C         1.219070         3.086226         0.182036
 C         2.061813         1.717081         0.039049
 C         3.010391         1.327506         1.152262
 O         3.525265         0.032923         0.388410
 C         2.753060        -0.021891        -0.733968
 C         2.538299         1.339903        -1.350349
 O         1.176996         0.987957        -1.801351
 C         1.279628         0.477251        -0.454426
 C         0.097727        -0.291036         0.209064
 H         0.821247         3.134658         1.256013
 H         1.809017         3.907600        -0.089210
 H         0.330204         2.974303        -0.393066
 H         3.975508         1.875135         1.387582
 H         2.637838         0.954272         2.146601
 H         2.957627        -0.958714        -1.359606
 H         3.361057         1.897118        -1.944250
 H         0.349788        -0.774881         1.118892
 H        -0.772436         0.313788         0.327951
 H        -0.144417        -1.092876        -0.552853
