19
Iteration:  1897
 C         1.191151         3.004226         0.259596
 C         2.017671         1.741551         0.033836
 C         3.103410         1.381522         1.024897
 O         3.542796         0.110424         0.453276
 C         2.706039        -0.059588        -0.675567
 C         2.581302         1.307442        -1.389460
 O         1.227224         0.919122        -1.827444
 C         1.289338         0.401789        -0.457035
 C         0.018261        -0.195562         0.219656
 H         0.329511         2.734822         0.980572
 H         1.663651         3.827481         0.701152
 H         0.724943         3.230205        -0.689420
 H         3.919509         2.140793         0.742583
 H         2.962976         1.416746         2.069740
 H         2.972601        -0.976397        -1.282478
 H         3.160411         1.616127        -2.199988
 H         0.189795        -0.481767         1.308200
 H        -0.892789         0.429272         0.207715
 H        -0.151377        -1.204988        -0.224869
