19
Iteration:   814charge 0 multiplicity 1
 C         1.163452         3.042303         0.462298
 C         1.976292         1.834444         0.068706
 C         3.255563         1.412030         0.836875
 O         3.451180        -0.031899         0.516504
 C         2.653785        -0.101390        -0.633097
 C         2.552382         1.359338        -1.389136
 O         1.253643         0.959018        -1.971086
 C         1.230900         0.453998        -0.497373
 C         0.088825        -0.281513         0.212248
 H         0.801588         2.739237         1.516703
 H         1.731976         3.954534         0.542430
 H         0.275585         3.240484        -0.081346
 H         4.088579         1.976586         0.466154
 H         3.426804         1.384623         1.980735
 H         2.774605        -1.100827        -1.245096
 H         3.181109         1.788586        -2.142188
 H         0.401187        -0.112258         1.350509
 H        -0.923721         0.160805         0.149560
 H        -0.010760        -1.315994        -0.179246
