19
Iteration:   681
 C         1.219968         3.002081         0.391693
 C         2.057280         1.807056        -0.038417
 C         3.129800         1.336098         0.961055
 O         3.467947        -0.005345         0.470383
 C         2.620044        -0.019055        -0.664714
 C         2.517373         1.309813        -1.417126
 O         1.233951         0.963029        -1.913827
 C         1.219602         0.531656        -0.408119
 C         0.205359        -0.269965         0.238202
 H         0.831766         2.686864         1.351900
 H         1.701849         4.022604         0.493956
 H         0.294002         3.031857        -0.363021
 H         4.040878         1.861194         0.880781
 H         2.715351         1.381577         2.036298
 H         2.708304        -0.902564        -1.153448
 H         3.245361         1.817396        -2.102152
 H         0.741207        -0.961391         0.790373
 H        -0.556810         0.338980         0.758913
 H        -0.503161        -0.789444        -0.536627
