19
Iteration:   168
 C         1.287341         3.118581         0.266255
 C         2.032907         1.792328         0.035015
 C         2.933493         1.246240         1.154937
 O         3.633710         0.200056         0.402785
 C         2.827344        -0.037641        -0.731673
 C         2.476671         1.295248        -1.404863
 O         1.118248         0.781892        -1.766430
 C         1.347092         0.397863        -0.402719
 C         0.075099        -0.196230         0.127336
 H         0.978166         3.303741         1.278202
 H         1.919200         3.960990        -0.100873
 H         0.384928         3.147364        -0.361933
 H         3.614677         1.953429         1.586710
 H         2.377914         0.821232         1.955389
 H         3.035610        -0.902283        -1.526447
 H         3.084549         1.878454        -2.249879
 H         0.052579        -0.414961         1.098336
 H        -0.753704         0.420798        -0.156580
 H        -0.395185        -1.098131        -0.414753
