19
Iteration:  1056charge 0 multiplicity 1
 C         1.277568         3.052876         0.267945
 C         1.973501         1.720783         0.059434
 C         3.072885         1.322491         1.038186
 O         3.497652         0.086636         0.428538
 C         2.683847        -0.012382        -0.720131
 C         2.523376         1.311158        -1.422577
 O         1.198861         0.953332        -1.908291
 C         1.261427         0.396167        -0.436332
 C         0.172496        -0.241409         0.313021
 H         0.538877         3.014825         1.194592
 H         1.951876         3.890239         0.431712
 H         0.658176         3.133639        -0.601476
 H         3.929031         2.018082         0.994286
 H         2.659940         1.280834         2.049424
 H         2.902423        -0.990375        -1.352380
 H         3.088982         1.879661        -2.105960
 H         0.486324        -0.378258         1.400394
 H        -0.757406         0.323747         0.256101
 H        -0.102462        -1.227852         0.026044
