19
Iteration:   657charge 0 multiplicity 1
 C         1.177348         3.030136         0.512992
 C         2.000636         1.753055         0.046017
 C         3.274452         1.443468         0.846695
 O         3.389956         0.035085         0.538928
 C         2.693721        -0.084659        -0.712136
 C         2.578874         1.247677        -1.437917
 O         1.229088         0.999455        -1.913017
 C         1.216370         0.510697        -0.458034
 C         0.088164        -0.322699         0.185346
 H         0.804715         2.853151         1.460986
 H         1.835863         3.964543         0.532357
 H         0.307335         3.192832        -0.242148
 H         4.151266         2.033560         0.540550
 H         3.150292         1.512255         1.918916
 H         2.854568        -1.109147        -1.007661
 H         3.380362         1.695614        -2.113457
 H         0.558021        -0.844926         0.969604
 H        -0.708041         0.385506         0.455293
 H        -0.517112        -0.986220        -0.509737
