19
Iteration:  1665charge 0 multiplicity 1
 C         1.182226         3.056712         0.292069
 C         1.998725         1.832048         0.017878
 C         3.125656         1.391423         0.956278
 O         3.474124         0.002799         0.545234
 C         2.726081        -0.099664        -0.624211
 C         2.593421         1.270549        -1.435576
 O         1.230832         0.945401        -1.866422
 C         1.171140         0.526000        -0.502533
 C         0.144440        -0.302589         0.215347
 H         0.874185         3.117455         1.417748
 H         1.766161         3.994046         0.121700
 H         0.367517         3.048023        -0.332445
 H         3.993615         2.131796         0.825645
 H         2.767700         1.386303         2.014256
 H         2.876410        -0.991540        -1.249189
 H         3.106202         1.835671        -2.205937
 H         0.430601        -0.244317         1.292290
 H        -0.916876         0.039843         0.091667
 H         0.235194        -1.403154        -0.051548
