19
Iteration:  3847
 C         1.218969         3.081801         0.326618
 C         1.979871         1.784654         0.089057
 C         3.130767         1.302865         1.037644
 O         3.498443        -0.015106         0.459146
 C         2.725631        -0.010132        -0.678681
 C         2.536804         1.345438        -1.394406
 O         1.198331         0.936374        -1.877794
 C         1.270578         0.512902        -0.468313
 C         0.129505        -0.293056         0.158120
 H         0.654264         2.923885         1.263345
 H         1.856066         3.946905         0.355777
 H         0.474557         3.104847        -0.571462
 H         3.856250         2.103711         0.867867
 H         2.838729         1.290472         2.067041
 H         2.889351        -1.058453        -1.130415
 H         3.175273         1.697040        -2.203723
 H         0.307518        -0.597794         1.271128
 H        -0.784961         0.404441         0.172655
 H        -0.237473        -1.069127        -0.417803
