19
Iteration:  1017
 C         1.253919         3.021356         0.175081
 C         2.071000         1.784676         0.023790
 C         2.947089         1.147409         1.065764
 O         3.737671         0.132078         0.365180
 C         2.905802        -0.040356        -0.729916
 C         2.454441         1.370965        -1.435620
 O         1.077494         0.912985        -1.755680
 C         1.277074         0.431415        -0.359973
 C        -0.018837        -0.148756         0.299432
 H         0.688552         3.009543         1.053740
 H         1.897240         3.934658         0.337700
 H         0.566019         3.219560        -0.748000
 H         3.587978         1.833705         1.611432
 H         2.382433         0.539210         1.828844
 H         3.219025        -0.843670        -1.286198
 H         2.910742         1.741976        -2.469688
 H        -0.030782        -0.135065         1.359347
 H        -0.731148         0.633095        -0.098338
 H        -0.128619        -1.272222         0.013889
