19
Iteration:  2209
 C         1.245158         3.042488         0.258903
 C         1.999052         1.813679        -0.028085
 C         3.113061         1.362873         0.934281
 O         3.383983         0.020349         0.560481
 C         2.721660        -0.006430        -0.675853
 C         2.582064         1.348855        -1.453548
 O         1.180501         0.942166        -1.786677
 C         1.271072         0.494897        -0.428561
 C         0.163985        -0.352372         0.242743
 H         0.767934         2.865575         1.182178
 H         1.827140         4.049465         0.232969
 H         0.543209         3.224136        -0.585767
 H         4.006575         1.949923         0.655801
 H         2.893818         1.355188         2.071360
 H         2.989966        -0.889814        -1.135314
 H         3.225258         1.740366        -2.259075
 H         0.566386        -0.939773         1.064088
 H        -0.765728         0.216194         0.468022
 H        -0.163465        -1.235998        -0.451290
