19
Iteration:  3231
 C         1.352618         3.071280         0.234719
 C         2.039575         1.731754         0.090060
 C         3.026144         1.277485         1.080603
 O         3.625946         0.186216         0.451248
 C         2.675059        -0.086972        -0.621845
 C         2.573543         1.287474        -1.419251
 O         1.075544         0.960373        -1.842801
 C         1.264223         0.402836        -0.459143
 C         0.058753        -0.259544         0.114012
 H         0.791980         2.890635         1.225495
 H         1.896089         4.079649         0.442132
 H         0.695249         3.324082        -0.565898
 H         3.597888         2.229222         1.157867
 H         2.697244         0.992250         2.014255
 H         2.931766        -1.069565        -0.969800
 H         3.151762         1.776636        -2.170344
 H         0.136200        -0.735689         1.050054
 H        -0.736406         0.422571         0.261328
 H        -0.180721        -1.163747        -0.594436
