19
Iteration:  4834
 C         1.314027         3.055940         0.206645
 C         1.966098         1.712133         0.145915
 C         2.985157         1.265138         1.090947
 O         3.606770         0.128219         0.440231
 C         2.763675        -0.070330        -0.774482
 C         2.531710         1.410849        -1.325023
 O         1.167166         0.905604        -1.836663
 C         1.245259         0.413470        -0.407845
 C         0.042099        -0.259852         0.145374
 H         0.545490         3.217674         1.002984
 H         2.122052         3.754718         0.280511
 H         0.833501         3.286493        -0.758898
 H         3.842922         1.994949         1.226133
 H         2.807156         0.990253         2.090077
 H         2.956934        -0.843930        -1.468257
 H         3.121325         2.171870        -2.022862
 H         0.234659        -0.588785         1.250414
 H        -0.836985         0.409430         0.043514
 H        -0.105186        -1.084450        -0.458817
