19
Iteration:  1409charge 0 multiplicity 1
 C         1.296608         3.091573         0.285166
 C         2.002216         1.752594        -0.003844
 C         3.020064         1.338743         0.994461
 O         3.659523         0.155187         0.423760
 C         2.754813        -0.050947        -0.646681
 C         2.517754         1.230595        -1.377495
 O         1.165157         0.857430        -1.785135
 C         1.250326         0.438746        -0.425149
 C        -0.005167        -0.243913         0.163105
 H         0.639564         2.994304         1.140561
 H         1.971608         3.994715         0.528154
 H         0.647884         3.438047        -0.635534
 H         3.868213         2.162149         1.114730
 H         2.647402         1.096761         1.967991
 H         2.783047        -1.082603        -1.066120
 H         3.000887         1.964790        -2.155123
 H         0.253613        -0.622254         1.151266
 H        -0.779846         0.503982         0.108586
 H        -0.180027        -1.163041        -0.430247
