19
Iteration:  3689charge 0 multiplicity 1
 C         1.154232         2.986984         0.307150
 C         1.945726         1.719550         0.097783
 C         3.264857         1.350704         0.920773
 O         3.468305        -0.012356         0.539371
 C         2.697423        -0.055732        -0.700103
 C         2.597182         1.371660        -1.316116
 O         1.201679         0.975708        -1.851928
 C         1.240453         0.430743        -0.511098
 C         0.087562        -0.180104         0.169013
 H         0.516741         2.920830         1.150602
 H         1.930483         3.847109         0.432811
 H         0.495624         3.278043        -0.436449
 H         4.045346         2.085418         0.676188
 H         2.908978         1.355478         1.938559
 H         2.860100        -0.912132        -1.356351
 H         3.179073         1.938234        -2.089309
 H         0.502693        -0.578285         1.065372
 H        -0.768603         0.481655         0.315855
 H        -0.159734        -1.138879        -0.483865
