19
Iteration:  4958charge 0 multiplicity 1
 C         1.155487         2.946433         0.223512
 C         2.024456         1.785524         0.016187
 C         3.019458         1.230759         1.094249
 O         3.638224         0.102881         0.379849
 C         2.729554        -0.081577        -0.629315
 C         2.565506         1.272985        -1.394862
 O         1.206166         1.072662        -1.845296
 C         1.234424         0.457861        -0.408491
 C         0.088391        -0.199729         0.208061
 H         0.438543         2.919010         1.030033
 H         1.798931         3.800236         0.500751
 H         0.441327         3.263910        -0.590258
 H         3.822585         2.008911         1.299291
 H         2.658376         0.871487         2.026635
 H         3.042268        -1.092999        -1.023681
 H         3.204213         1.650051        -2.173384
 H         0.425428        -0.740414         1.030635
 H        -0.647462         0.560759         0.479886
 H        -0.414271        -0.810827        -0.630994
