19
Iteration:  4430
 C         1.163261         3.026063         0.269763
 C         2.064479         1.748092         0.073410
 C         3.022670         1.242595         1.121674
 O         3.661605         0.185372         0.380038
 C         2.670257        -0.132976        -0.721885
 C         2.626044         1.303781        -1.353041
 O         1.193308         0.967019        -1.798765
 C         1.288708         0.424590        -0.396781
 C        -0.024766        -0.183032         0.129596
 H         0.362953         2.835745         1.129332
 H         1.663325         3.882339         0.560657
 H         0.648159         3.294180        -0.658754
 H         3.910078         1.795659         1.268902
 H         2.389480         1.077805         1.977250
 H         3.062912        -0.997636        -1.432033
 H         3.251151         1.679784        -2.211686
 H         0.307061        -0.691786         1.048096
 H        -0.754985         0.613532         0.048197
 H        -0.158309        -0.892874        -0.682254
