19
Iteration:   329charge 0 multiplicity 1
 C         1.283120         3.084111         0.241346
 C         2.016156         1.772161         0.079768
 C         3.041832         1.191681         1.104739
 O         3.704133         0.167550         0.368853
 C         2.804809         0.008313        -0.697831
 C         2.438189         1.365461        -1.399453
 O         1.107319         0.805727        -1.735679
 C         1.301757         0.402509        -0.330467
 C        -0.024828        -0.194472         0.054165
 H         0.868754         3.198900         1.247974
 H         2.107244         3.904648         0.168075
 H         0.573786         3.306028        -0.499532
 H         3.896019         1.810983         1.545055
 H         2.375667         0.879087         1.958279
 H         3.072721        -0.896360        -1.371077
 H         3.074417         1.889391        -2.106800
 H        -0.161276        -0.522105         1.150981
 H        -0.740720         0.542611        -0.365552
 H        -0.295281        -1.064244        -0.663796
