19
Iteration:  2671charge 0 multiplicity 1
 C         1.305118         3.016899         0.206256
 C         1.980239         1.744989         0.025987
 C         3.072197         1.232982         1.130242
 O         3.608910         0.134516         0.398196
 C         2.822323         0.006952        -0.710411
 C         2.474763         1.366960        -1.430835
 O         1.150040         0.890133        -1.797294
 C         1.239286         0.387268        -0.448253
 C        -0.010495        -0.201452         0.228123
 H         0.773886         3.015137         1.200051
 H         2.023593         3.960285         0.124140
 H         0.634945         3.151519        -0.608846
 H         3.886011         1.973665         1.245538
 H         2.451396         0.843376         1.972957
 H         3.301850        -0.830941        -1.155070
 H         3.108778         1.836359        -2.140863
 H         0.362223        -0.248211         1.382787
 H        -0.879379         0.558627         0.362151
 H        -0.325476        -1.130686        -0.197393
