19
Iteration:  2303charge 0 multiplicity 1
 C         1.236556         2.996003         0.253642
 C         2.061821         1.735831        -0.009824
 C         3.078747         1.430113         1.047196
 O         3.560316         0.066801         0.459531
 C         2.746976        -0.060648        -0.682878
 C         2.516695         1.325511        -1.372847
 O         1.121055         0.909021        -1.861040
 C         1.322328         0.422576        -0.385522
 C         0.029961        -0.194230         0.216020
 H         0.853312         2.809676         1.280717
 H         1.865709         3.773243         0.333960
 H         0.550222         3.299178        -0.563678
 H         3.975934         2.095461         0.999444
 H         2.657542         1.249167         2.028609
 H         3.182827        -0.987893        -1.400020
 H         3.133107         1.804344        -2.196464
 H        -0.014444        -0.635489         1.296631
 H        -0.851880         0.402696         0.000879
 H        -0.089689        -1.104448        -0.327040
