19
Iteration:  1908charge 0 multiplicity 1
 C         1.138811         2.968432         0.257679
 C         1.999056         1.781697        -0.007439
 C         3.142832         1.424301         0.962288
 O         3.467475         0.001486         0.556068
 C         2.746169        -0.040123        -0.717345
 C         2.547188         1.319072        -1.452972
 O         1.199020         0.899830        -1.861624
 C         1.318296         0.453039        -0.340036
 C         0.127113        -0.182213         0.219085
 H         0.455555         2.594173         1.098471
 H         1.707981         3.755888         0.654298
 H         0.500153         3.395704        -0.519630
 H         4.041696         2.145481         0.846513
 H         2.952423         1.272855         1.990487
 H         2.933282        -0.980401        -1.290867
 H         3.231093         1.847953        -2.048978
 H         0.191137        -0.428343         1.316327
 H        -0.699843         0.528805         0.015513
 H        -0.129056        -1.066311        -0.410031
