19
Iteration:  4459
 C         1.228997         2.979337         0.263875
 C         1.983068         1.699835         0.078790
 C         3.011881         1.244576         1.071597
 O         3.612365         0.034744         0.473487
 C         2.776262        -0.045815        -0.683733
 C         2.521155         1.408539        -1.350469
 O         1.199771         0.986376        -1.854670
 C         1.248273         0.461783        -0.487657
 C         0.057998        -0.194343         0.162469
 H         0.679702         2.950306         1.169552
 H         1.866615         3.937453         0.155297
 H         0.678241         3.075034        -0.649819
 H         3.903154         1.976267         1.154016
 H         2.498324         1.234629         2.101862
 H         3.122749        -0.807848        -1.373325
 H         2.980876         1.978005        -2.138883
 H         0.438360        -0.443465         1.121556
 H        -0.849323         0.449549         0.204108
 H        -0.160213        -1.156584        -0.483927
