19
Iteration:  4846charge 0 multiplicity 1
 C         1.331703         3.126969         0.222936
 C         2.017121         1.740639         0.001496
 C         3.055012         1.244498         1.102235
 O         3.593749         0.083757         0.451649
 C         2.777811         0.002220        -0.711809
 C         2.482326         1.348151        -1.328185
 O         1.104302         0.894616        -1.723207
 C         1.291664         0.446327        -0.439190
 C         0.064175        -0.301619         0.028552
 H         0.663566         3.123249         1.139923
 H         2.019183         3.911478         0.450948
 H         0.723418         3.359332        -0.723356
 H         3.741318         2.104171         1.351689
 H         2.332656         1.019383         1.823187
 H         2.959134        -0.924435        -1.182779
 H         3.022668         2.146091        -2.031669
 H         0.210555        -0.573331         1.180663
 H        -0.865415         0.303272         0.049745
 H        -0.127694        -1.232142        -0.406981
