19
Iteration:   342charge 0 multiplicity 1
 C         1.342575         3.080174         0.277694
 C         1.976950         1.746148         0.034962
 C         3.050097         1.318425         1.034353
 O         3.700077         0.121677         0.381231
 C         2.757083        -0.059697        -0.671547
 C         2.513289         1.327791        -1.356334
 O         1.161750         0.912894        -1.725605
 C         1.204884         0.474594        -0.349615
 C        -0.047071        -0.303845         0.042706
 H         0.765128         2.973420         1.163851
 H         2.043393         3.948900         0.412430
 H         0.622522         3.262633        -0.490999
 H         3.735521         2.254071         1.266617
 H         2.721175         0.844772         1.926279
 H         2.901173        -1.045167        -1.317997
 H         3.010200         1.900854        -2.207509
 H        -0.201392        -0.491641         1.060763
 H        -0.914546         0.305059        -0.136807
 H         0.041960        -1.326727        -0.492218
