19
Iteration:   797
 C         1.258822         3.007523         0.510209
 C         2.037365         1.783960        -0.018461
 C         3.258328         1.403807         0.827907
 O         3.310480         0.021079         0.565554
 C         2.705344        -0.029497        -0.731587
 C         2.521826         1.371155        -1.403988
 O         1.197288         0.930466        -1.866103
 C         1.281074         0.381929        -0.441263
 C         0.102611        -0.291036         0.175676
 H         0.818343         2.882951         1.537098
 H         1.872159         3.937254         0.508027
 H         0.407505         3.242202        -0.184428
 H         4.221262         1.927715         0.407451
 H         3.052802         1.774681         1.812031
 H         3.021301        -0.876399        -1.296618
 H         3.235364         1.986795        -2.069430
 H         0.193450        -0.270393         1.236727
 H        -0.830504         0.147790        -0.214328
 H        -0.026362        -1.335823        -0.130935
