19
Iteration:  1048
 C         1.247361         3.040124         0.239536
 C         1.972266         1.716769         0.109427
 C         3.025236         1.263907         1.081666
 O         3.559838         0.133572         0.326204
 C         2.664294        -0.028746        -0.701826
 C         2.549117         1.350175        -1.374032
 O         1.203416         0.906121        -1.888253
 C         1.269733         0.415500        -0.460507
 C         0.159668        -0.217075         0.324201
 H         0.609943         3.041353         1.056145
 H         2.048232         3.751204         0.310008
 H         0.668274         3.372898        -0.676215
 H         3.765988         2.000293         1.202888
 H         2.622445         0.937077         2.147553
 H         2.889648        -0.820989        -1.239705
 H         3.103626         1.657525        -2.319512
 H         0.505028        -0.023527         1.340665
 H        -0.810765         0.428129         0.291777
 H        -0.183474        -1.287460         0.068400
