19
Iteration:  2445charge 0 multiplicity 1
 C         1.212117         2.958449         0.272617
 C         2.023772         1.719984        -0.018217
 C         3.114676         1.402356         0.999540
 O         3.511614         0.028356         0.455218
 C         2.758255        -0.084958        -0.623669
 C         2.502441         1.341075        -1.442033
 O         1.153716         0.944664        -1.814145
 C         1.314419         0.430858        -0.382921
 C         0.103060        -0.156342         0.169045
 H         0.722939         2.791733         1.268439
 H         1.763490         3.840280         0.333658
 H         0.496446         3.183589        -0.561038
 H         3.957994         2.132627         0.970475
 H         2.650976         1.348040         2.030068
 H         2.939520        -1.162078        -1.113690
 H         2.985160         2.061962        -2.112690
 H         0.443942        -0.645420         1.152555
 H        -0.571405         0.654827         0.330395
 H        -0.296671        -0.933985        -0.431658
