19
Iteration:  1362charge 0 multiplicity 1
 C         1.133656         2.943478         0.224072
 C         2.054025         1.749056        -0.024709
 C         3.194463         1.438265         0.882008
 O         3.367101        -0.026844         0.580096
 C         2.679923        -0.121340        -0.646087
 C         2.523729         1.363894        -1.369865
 O         1.229178         1.032515        -1.832764
 C         1.280918         0.482286        -0.448272
 C         0.174512        -0.246352         0.263795
 H         0.311247         2.763097         0.887451
 H         1.574019         3.805471         0.557468
 H         0.707776         3.128078        -0.789627
 H         4.108969         2.055836         0.536955
 H         3.036014         1.578284         1.929779
 H         3.078613        -0.955034        -1.128028
 H         3.171034         1.788339        -2.135538
 H         0.827900        -0.709295         0.934812
 H        -0.549015         0.416928         0.779003
 H        -0.226876        -1.092980        -0.279226
