19
Iteration:  1861
 C         1.312373         3.086205         0.144310
 C         1.982742         1.754978         0.062439
 C         2.953414         1.224019         1.124267
 O         3.694832         0.193873         0.383202
 C         2.793780        -0.012332        -0.674048
 C         2.499159         1.318197        -1.399406
 O         1.136684         0.872726        -1.757333
 C         1.262459         0.379301        -0.326661
 C         0.019963        -0.249179         0.178852
 H         0.498774         3.259125         0.985281
 H         2.102179         3.931004         0.117148
 H         0.860540         3.276662        -0.798739
 H         3.806137         2.016356         1.184061
 H         2.481467         0.971963         2.098999
 H         2.968480        -0.979527        -1.371525
 H         3.072598         1.830563        -2.274584
 H         0.040696        -0.614218         1.129845
 H        -0.778660         0.486527        -0.007422
 H        -0.156745        -1.078753        -0.568530
