19
Iteration:  2276
 C         1.183112         3.041537         0.188779
 C         2.012456         1.737195         0.077634
 C         2.998458         1.249518         1.063993
 O         3.689623         0.133659         0.348559
 C         2.787320        -0.066131        -0.615046
 C         2.489551         1.319133        -1.374542
 O         1.163965         0.905559        -1.823498
 C         1.317207         0.393294        -0.418643
 C         0.036401        -0.131641         0.203527
 H         0.665812         3.095902         1.146740
 H         1.874838         4.075433         0.276905
 H         0.565119         3.032442        -0.713022
 H         3.792858         1.976508         1.168560
 H         2.554707         0.823103         2.064501
 H         2.976051        -0.891249        -1.122562
 H         3.081968         1.694644        -2.175091
 H         0.215996        -0.362272         1.235842
 H        -0.740837         0.702431         0.280203
 H        -0.448717        -1.109735        -0.257424
