19
Iteration:  3128charge 0 multiplicity 1
 C         1.206252         3.094156         0.239389
 C         2.000885         1.784584         0.027872
 C         3.135634         1.266877         1.126622
 O         3.448712         0.038376         0.499530
 C         2.693262        -0.068586        -0.726866
 C         2.603665         1.367327        -1.452603
 O         1.146203         0.891805        -1.840265
 C         1.269002         0.513210        -0.446970
 C         0.183130        -0.237126         0.198739
 H         0.751167         3.181784         1.195551
 H         1.799037         4.077735         0.042393
 H         0.271790         3.050382        -0.436619
 H         4.034111         1.839593         1.065776
 H         2.892470         1.130470         2.186055
 H         2.960868        -1.079862        -1.163640
 H         3.098898         1.998809        -2.242634
 H         0.417192        -0.693206         1.216922
 H        -0.820824         0.256402         0.149198
 H         0.053632        -1.109656        -0.337787
