19
Iteration:  2481charge 0 multiplicity 1
 C         1.151689         3.057913         0.356091
 C         2.019857         1.794820         0.027804
 C         3.229087         1.447273         0.916744
 O         3.481088         0.002453         0.481872
 C         2.685775        -0.109217        -0.624410
 C         2.534122         1.304948        -1.393960
 O         1.221397         0.938398        -1.864399
 C         1.253372         0.437238        -0.448269
 C         0.100558        -0.251531         0.173656
 H         0.640645         2.986674         1.253778
 H         1.699966         3.972120         0.493888
 H         0.416077         3.167493        -0.524095
 H         4.210057         1.999921         0.739534
 H         3.108575         1.173611         1.950902
 H         2.787027        -1.097248        -1.089650
 H         3.028768         2.011874        -2.091223
 H         0.295834        -0.290941         1.191396
 H        -0.842277         0.318926         0.218406
 H        -0.195249        -1.294625        -0.298517
