19
Iteration:   582charge 0 multiplicity 1
 C         1.332570         3.006012         0.206917
 C         2.004495         1.726951         0.051752
 C         2.941544         1.125168         1.051087
 O         3.674662         0.177931         0.324687
 C         2.693824        -0.050696        -0.720346
 C         2.535990         1.333940        -1.347383
 O         1.168507         1.075231        -1.820740
 C         1.233153         0.429129        -0.426516
 C         0.070811        -0.244697         0.308255
 H         0.751314         3.047546         1.117692
 H         2.132662         3.841401         0.114331
 H         0.654953         3.158974        -0.789002
 H         3.595293         1.847056         1.518705
 H         2.453760         0.534748         2.050007
 H         2.838301        -0.921694        -1.271663
 H         3.098865         2.154201        -1.912897
 H         0.314094        -0.122967         1.341381
 H        -0.957303         0.120550         0.043832
 H        -0.034367        -1.431653         0.050484
