19
Iteration:  1954charge 0 multiplicity 1
 C         1.208574         3.011585         0.276550
 C         1.998435         1.725475        -0.000307
 C         3.056855         1.377062         0.954512
 O         3.469047         0.081937         0.510424
 C         2.716408        -0.035430        -0.701801
 C         2.578029         1.303934        -1.372211
 O         1.246170         0.985578        -1.922018
 C         1.268811         0.416234        -0.411097
 C         0.131216        -0.260632         0.284041
 H         0.855307         3.110490         1.333432
 H         1.743871         3.842978        -0.149765
 H         0.228573         3.128984        -0.401371
 H         4.023268         1.978350         0.982885
 H         2.639371         1.278801         1.990422
 H         2.911283        -0.895935        -1.205280
 H         3.271643         1.780980        -2.029968
 H         0.544431        -0.725227         1.352505
 H        -0.858344         0.295644         0.421288
 H        -0.219846        -1.151301        -0.250859
