19
Iteration:  2713
 C         1.280366         3.036484         0.203143
 C         2.049141         1.785938         0.066866
 C         3.094595         1.271186         1.046611
 O         3.486926         0.113198         0.452554
 C         2.684561        -0.014368        -0.681954
 C         2.529642         1.322908        -1.409356
 O         1.176433         0.938682        -1.804715
 C         1.234700         0.457803        -0.461845
 C         0.138264        -0.333168         0.219362
 H         0.838158         3.202504         1.202399
 H         2.018202         3.964989         0.206090
 H         0.431739         3.165538        -0.554948
 H         3.970628         1.993398         1.121961
 H         2.564786         1.059377         1.984175
 H         2.745439        -0.845495        -1.265934
 H         3.072855         1.807047        -2.235642
 H         0.465993        -0.234113         1.291379
 H        -0.860296         0.200955         0.174637
 H         0.084338        -1.285860        -0.265866
