19
Iteration:  1806charge 0 multiplicity 1
 C         1.215879         3.072723         0.224595
 C         1.957237         1.755076         0.041000
 C         3.124846         1.470112         1.000417
 O         3.343510         0.060913         0.513748
 C         2.667522        -0.072502        -0.719121
 C         2.585807         1.265443        -1.359418
 O         1.269743         0.983580        -1.904093
 C         1.230822         0.430750        -0.432598
 C         0.184753        -0.354792         0.245298
 H         1.240415         3.243338         1.337919
 H         1.823234         3.980908        -0.079185
 H         0.244531         3.177340        -0.118133
 H         4.102616         2.060085         0.800475
 H         2.931090         1.401591         2.030455
 H         2.847336        -1.071943        -1.243161
 H         3.311941         1.792325        -2.087745
 H         0.772308        -0.772327         1.025649
 H        -0.653088         0.134496         0.721891
 H         0.035933        -1.277178        -0.330475
