19
Iteration:  2310
 C         1.250835         3.008125         0.293982
 C         2.051878         1.823729        -0.044350
 C         3.084054         1.388119         0.972873
 O         3.533756         0.044558         0.478403
 C         2.758689        -0.040067        -0.631234
 C         2.500342         1.320863        -1.367466
 O         1.142712         0.942128        -1.882172
 C         1.319226         0.381713        -0.368348
 C         0.049563        -0.258696         0.189322
 H         0.633370         2.831361         1.229242
 H         1.955276         3.958961         0.266197
 H         0.542155         3.205412        -0.460902
 H         3.944111         2.056347         0.855551
 H         2.849754         1.368081         2.101774
 H         2.912355        -0.933497        -1.132365
 H         3.104856         1.741102        -2.150694
 H         0.177840        -0.512217         1.264980
 H        -0.828677         0.447314         0.014102
 H        -0.206803        -1.255570        -0.248664
