19
Iteration:  1495
 C         1.160255         2.978434         0.244916
 C         2.027058         1.790661        -0.021210
 C         3.155564         1.391128         0.929835
 O         3.373866         0.030117         0.557447
 C         2.658141        -0.094014        -0.637255
 C         2.654989         1.286891        -1.438303
 O         1.204069         1.076335        -1.859350
 C         1.273596         0.468923        -0.441393
 C         0.175797        -0.300594         0.270279
 H         0.865621         3.014859         1.205086
 H         1.778612         3.816635         0.155755
 H         0.230746         2.990227        -0.429834
 H         4.041313         2.070744         0.738102
 H         2.892209         1.485238         1.954733
 H         2.718553        -1.131214        -1.098152
 H         3.283847         1.902267        -2.225812
 H         0.501986        -0.493996         1.299545
 H        -0.894029        -0.087852         0.337081
 H         0.147322        -1.340992        -0.170894
