19
Iteration:  3859
 C         1.228773         3.003286         0.301018
 C         2.016284         1.731140         0.044826
 C         3.041980         1.318483         1.044271
 O         3.569270         0.008304         0.475626
 C         2.821533        -0.046002        -0.742322
 C         2.534503         1.398885        -1.385772
 O         1.218992         0.899114        -1.888084
 C         1.227137         0.460582        -0.429330
 C         0.007581        -0.178479         0.211463
 H         0.723220         3.172116         1.317179
 H         1.831383         3.853018         0.207450
 H         0.404377         3.173292        -0.483932
 H         3.952070         1.899497         1.104054
 H         2.708968         1.126442         2.032437
 H         3.074889        -0.871075        -1.490757
 H         2.971879         2.203927        -2.018616
 H         0.334343        -0.623937         1.206775
 H        -0.876979         0.499686         0.382557
 H        -0.184378        -1.031361        -0.372540
