19
Iteration:  2855charge 0 multiplicity 1
 C         1.155717         3.039194         0.197024
 C         1.972538         1.761424         0.037378
 C         3.089685         1.319909         1.009536
 O         3.508196         0.025186         0.490499
 C         2.690684        -0.029964        -0.755695
 C         2.605985         1.294630        -1.353236
 O         1.189736         0.966200        -1.842129
 C         1.293213         0.424200        -0.437611
 C         0.149389        -0.228880         0.259862
 H         0.769638         3.108033         1.194670
 H         1.845881         3.999744         0.109074
 H         0.319367         3.225670        -0.546763
 H         3.964349         2.085679         0.866259
 H         2.737853         1.232913         2.043605
 H         2.791233        -0.855845        -1.366830
 H         3.350203         1.817388        -1.954791
 H         0.518505        -0.456238         1.334231
 H        -0.809037         0.312885         0.529536
 H        -0.060750        -1.121896        -0.254494
