19
Iteration:   216
 C         1.360480         3.156798         0.198149
 C         1.913494         1.732940         0.113196
 C         3.135071         1.396725         1.024604
 O         3.541508         0.126693         0.452641
 C         2.723874        -0.065816        -0.688953
 C         2.552604         1.336311        -1.331696
 O         1.138579         0.956942        -1.824458
 C         1.191184         0.374893        -0.438689
 C         0.083958        -0.425711         0.135400
 H         0.429735         3.051167         0.813053
 H         2.033180         3.843682         0.650349
 H         1.000798         3.574476        -0.797743
 H         3.883274         2.168506         1.002228
 H         2.802477         1.276504         2.135215
 H         3.068399        -0.938500        -1.131326
 H         3.221067         1.789061        -2.012523
 H         0.495957        -0.887892         1.153950
 H        -0.887788         0.094937         0.215607
 H        -0.377765        -1.201676        -0.406312
