19
Iteration:  3048charge 0 multiplicity 1
 C         1.264966         3.148938         0.233177
 C         2.049904         1.848140         0.040962
 C         3.116068         1.334907         1.042829
 O         3.489397         0.072980         0.449143
 C         2.734696        -0.022137        -0.696411
 C         2.510184         1.302379        -1.437826
 O         1.152846         0.877780        -1.803023
 C         1.324412         0.394544        -0.363937
 C         0.074692        -0.328292         0.146012
 H         0.592226         2.901148         1.132952
 H         1.863134         4.003418         0.423400
 H         0.600322         3.336505        -0.694357
 H         4.017770         1.880995         1.294100
 H         2.668458         1.075217         2.052524
 H         2.875600        -0.989936        -1.098943
 H         3.179531         1.816758        -2.143119
 H         0.105442        -0.609425         1.193215
 H        -0.665872         0.503137         0.233266
 H        -0.328052        -1.091993        -0.492731
