19
Iteration:   406
 C         1.178317         3.059260         0.289706
 C         2.059250         1.845955         0.001182
 C         3.102765         1.267382         1.055401
 O         3.350519        -0.081346         0.526932
 C         2.710312        -0.011820        -0.740036
 C         2.540853         1.417079        -1.434461
 O         1.147907         0.955961        -1.851430
 C         1.312029         0.451413        -0.483142
 C         0.307959        -0.249946         0.248604
 H         0.621376         2.894691         1.221375
 H         1.846105         4.027950         0.398662
 H         0.446926         3.195859        -0.484404
 H         3.979199         1.916465         1.019915
 H         2.643957         1.156385         2.089761
 H         2.827115        -0.981829        -1.426659
 H         3.082192         2.028378        -2.195499
 H         0.806286        -0.657632         1.235353
 H        -0.608517         0.408420         0.360793
 H        -0.080522        -1.155840        -0.457107
