19
Iteration:  3455
 C         1.346712         3.078850         0.227944
 C         2.037346         1.745571         0.038459
 C         3.010172         1.285511         1.036787
 O         3.490166         0.061141         0.500909
 C         2.741205        -0.036538        -0.770626
 C         2.521438         1.396530        -1.383373
 O         1.166878         1.013050        -1.852734
 C         1.243625         0.416382        -0.460136
 C         0.104986        -0.365194         0.250644
 H         0.806586         3.240381         1.196730
 H         2.114497         3.814352        -0.017785
 H         0.435206         3.202698        -0.501967
 H         3.859126         1.921959         1.214437
 H         2.469899         1.161227         1.933869
 H         2.998300        -1.041864        -1.144770
 H         3.210817         2.013242        -1.966492
 H         0.511210        -0.510178         1.337169
 H        -0.830843         0.261784         0.292483
 H        -0.073744        -1.321834        -0.176860
