19
Iteration:    62
 C         1.339407         3.175823         0.187895
 C         1.932323         1.729783         0.038870
 C         2.966174         1.320482         1.090200
 O         3.690245         0.237233         0.428336
 C         2.729021        -0.092261        -0.689439
 C         2.545091         1.307744        -1.330644
 O         1.170662         0.875307        -1.836957
 C         1.235186         0.347296        -0.463263
 C         0.012887        -0.328778         0.207796
 H         0.481734         3.126758         0.892589
 H         2.068839         3.818536         0.642163
 H         0.953206         3.631030        -0.831854
 H         3.672356         2.244329         1.139984
 H         2.541430         0.985405         2.150946
 H         2.935453        -1.004075        -1.396998
 H         3.266565         1.910812        -1.909602
 H         0.350246        -1.115235         1.073647
 H        -0.772476         0.321719         0.685668
 H        -0.308163        -1.059091        -0.590209
