19
Iteration:  3602
 C         1.370560         3.100501         0.182025
 C         2.030929         1.708348         0.062552
 C         2.959341         1.238049         1.104818
 O         3.562011         0.089530         0.502698
 C         2.767595        -0.010543        -0.816429
 C         2.509085         1.386714        -1.295975
 O         1.135626         0.980170        -1.872420
 C         1.224661         0.402087        -0.507260
 C         0.077486        -0.308340         0.253286
 H         0.991462         3.113229         1.218621
 H         2.117680         4.094477        -0.008660
 H         0.514599         3.223647        -0.467399
 H         3.759369         1.943825         1.245701
 H         2.646860         1.015610         2.108242
 H         3.149543        -0.932501        -1.301382
 H         2.925617         1.980171        -2.146423
 H         0.459984        -0.691641         1.181565
 H        -0.726766         0.424530         0.424449
 H        -0.197238        -1.307102        -0.319987
