19
Iteration:  1051
 C         1.255103         3.045344         0.252417
 C         1.975089         1.707144         0.102566
 C         3.037902         1.279358         1.072883
 O         3.533808         0.120604         0.353175
 C         2.658302        -0.011882        -0.695838
 C         2.543909         1.336036        -1.382231
 O         1.204545         0.923591        -1.903213
 C         1.275596         0.403462        -0.451623
 C         0.168290        -0.223679         0.320343
 H         0.580491         3.009821         1.089045
 H         2.069972         3.828651         0.342528
 H         0.647892         3.300093        -0.673287
 H         3.878820         2.050672         1.104282
 H         2.621199         1.083893         2.093720
 H         2.907821        -0.909973        -1.304760
 H         3.076064         1.722485        -2.346473
 H         0.505578        -0.122278         1.341500
 H        -0.783172         0.344598         0.288692
 H        -0.206407        -1.264870         0.055485
