19
Iteration:   351charge 0 multiplicity 1
 C         1.314337         3.061935         0.324900
 C         2.012397         1.744239         0.054571
 C         3.075759         1.365598         1.003852
 O         3.650408         0.122319         0.385389
 C         2.723670        -0.045401        -0.659182
 C         2.527020         1.247746        -1.336501
 O         1.157343         0.989022        -1.788008
 C         1.190444         0.444466        -0.397625
 C        -0.031765        -0.333422         0.067011
 H         0.678375         3.076092         1.216129
 H         2.089242         3.936836         0.432881
 H         0.779075         3.333687        -0.538689
 H         3.946557         2.136870         1.004845
 H         2.753273         1.197108         2.088743
 H         2.871824        -1.096112        -1.161465
 H         3.181508         1.882546        -1.956910
 H         0.137294        -0.523172         1.210129
 H        -1.031018         0.047989        -0.279133
 H         0.009893        -1.411370        -0.441504
