19
Iteration:  1468
 C         1.249305         3.110702         0.158626
 C         2.016400         1.810051         0.007797
 C         3.063268         1.291930         1.051667
 O         3.544351        -0.008476         0.488336
 C         2.769496         0.025051        -0.712785
 C         2.500432         1.356700        -1.329669
 O         1.116293         0.880297        -1.823350
 C         1.310257         0.389838        -0.411779
 C         0.145789        -0.242868         0.202402
 H         1.092165         3.397751         1.317467
 H         1.881225         3.890022        -0.429122
 H         0.284331         3.087377        -0.274578
 H         3.848552         1.953347         1.263825
 H         2.408417         1.136117         2.002312
 H         2.911234        -0.767724        -1.414905
 H         3.011097         1.916608        -2.015285
 H         0.177623        -0.188147         1.320504
 H        -0.849639         0.158606        -0.020353
 H         0.089483        -1.254907        -0.166368
