19
Iteration:   946charge 0 multiplicity 1
 C         1.269045         3.034107         0.394580
 C         2.089311         1.825929        -0.032748
 C         3.279856         1.423219         0.879350
 O         3.303148         0.040562         0.579471
 C         2.650827        -0.012207        -0.651279
 C         2.473142         1.339890        -1.445032
 O         1.144840         0.931011        -1.818726
 C         1.275970         0.398985        -0.466265
 C         0.177573        -0.334320         0.154383
 H         0.791297         3.007346         1.449896
 H         1.729114         3.987468         0.367573
 H         0.539266         3.055172        -0.307788
 H         4.255455         1.830790         0.593950
 H         3.108678         1.639675         1.984062
 H         2.899836        -1.011381        -1.280743
 H         3.173583         1.800396        -2.033840
 H         0.470650        -1.069479         1.027804
 H        -0.610086         0.359736         0.407136
 H        -0.043566        -1.069974        -0.556511
