19
Iteration:  2120charge 0 multiplicity 1
 C         1.173015         3.065398         0.197901
 C         1.951090         1.740141         0.085872
 C         3.026292         1.296488         1.099284
 O         3.677044         0.110224         0.373342
 C         2.854971        -0.087786        -0.749485
 C         2.537282         1.268348        -1.388323
 O         1.193994         0.909184        -1.805681
 C         1.210269         0.489171        -0.359454
 C         0.022613        -0.164647         0.223287
 H         0.610362         3.024453         1.081546
 H         1.797436         3.948848        -0.083989
 H         0.415915         3.119596        -0.701638
 H         3.746716         2.127038         1.415073
 H         2.526365         0.789226         2.004585
 H         2.905206        -1.115354        -1.293487
 H         3.325763         1.780348        -2.088684
 H         0.538818        -0.353395         1.256443
 H        -0.901815         0.442053         0.109372
 H        -0.120410        -1.176249        -0.272726
