19
Iteration:  2238
 C         1.247086         2.997940         0.198389
 C         2.014317         1.768287         0.050012
 C         3.025732         1.337780         1.066565
 O         3.535672         0.042729         0.435077
 C         2.744808        -0.054142        -0.644023
 C         2.514621         1.368708        -1.427870
 O         1.170408         0.937297        -1.815901
 C         1.279485         0.416323        -0.476936
 C         0.124124        -0.186179         0.287760
 H         0.562624         2.942824         1.093905
 H         1.792579         3.900929         0.092284
 H         0.452592         3.051170        -0.728301
 H         3.896807         2.036181         1.102383
 H         2.697673         1.149754         2.039430
 H         3.214532        -0.980983        -1.338358
 H         3.171319         1.815370        -2.255611
 H         0.492240        -0.746170         1.207074
 H        -0.673928         0.504501         0.373634
 H        -0.224680        -0.957655        -0.320077
