19
Iteration:  1095
 C         1.246922         3.059207         0.326972
 C         2.118064         1.831595         0.036034
 C         3.255451         1.446676         0.915945
 O         3.359458         0.052029         0.583848
 C         2.642110        -0.048700        -0.671710
 C         2.459166         1.281082        -1.453752
 O         1.121360         0.931472        -1.790055
 C         1.295590         0.457501        -0.392535
 C         0.184963        -0.388282         0.099078
 H         0.672339         2.920479         1.213468
 H         1.678968         4.086809         0.156420
 H         0.538791         3.039564        -0.512922
 H         4.197948         2.023968         0.618368
 H         3.217691         1.475520         2.012609
 H         2.757349        -1.092237        -1.095611
 H         3.152967         1.851589        -2.156876
 H         0.543883        -0.942243         0.976409
 H        -0.602868         0.288929         0.438094
 H        -0.203581        -0.876766        -0.845251
