19
Iteration:  3852
 C         1.209836         3.059782         0.319403
 C         2.022680         1.747229         0.098097
 C         3.082769         1.313119         1.044234
 O         3.530120        -0.024058         0.451871
 C         2.781600        -0.029929        -0.703288
 C         2.530081         1.376285        -1.375368
 O         1.207631         0.913705        -1.901506
 C         1.252533         0.528728        -0.461229
 C         0.079668        -0.246424         0.202677
 H         0.593270         2.949642         1.250401
 H         1.923444         3.928511         0.174864
 H         0.488655         3.151962        -0.426100
 H         3.875448         2.068513         0.865316
 H         2.718840         1.272143         2.109033
 H         3.008711        -0.942077        -1.160286
 H         3.015360         1.879408        -2.269244
 H         0.233933        -0.585752         1.167969
 H        -0.781447         0.367331         0.265328
 H        -0.304353        -1.131617        -0.460270
