19
Iteration:  3999charge 0 multiplicity 1
 C         1.346428         3.144688         0.300903
 C         1.979283         1.810309         0.075247
 C         3.019558         1.309615         1.059429
 O         3.550504         0.051642         0.486672
 C         2.709839        -0.041285        -0.708131
 C         2.592178         1.309069        -1.438546
 O         1.065256         0.928161        -1.844454
 C         1.283809         0.514876        -0.426109
 C         0.132636        -0.364234         0.124102
 H         0.770334         3.020235         1.168890
 H         2.165812         3.992611         0.265351
 H         0.625866         3.187820        -0.613318
 H         3.827976         2.063190         1.380556
 H         2.509689         1.172184         2.066558
 H         2.649428        -1.004729        -1.296629
 H         3.172193         1.782290        -2.204748
 H         0.496767        -0.853149         1.097784
 H        -0.855768         0.122224         0.345954
 H         0.099981        -1.172147        -0.511394
