19
Iteration:  3876charge 0 multiplicity 1
 C         1.229641         2.981671         0.249216
 C         1.958435         1.696716         0.020673
 C         3.023956         1.213996         1.061203
 O         3.601213         0.118844         0.400719
 C         2.794145         0.023170        -0.726489
 C         2.524816         1.381718        -1.323944
 O         1.197894         0.933046        -1.806667
 C         1.320289         0.335690        -0.472036
 C         0.038034        -0.123412         0.196979
 H         0.917219         2.870063         1.237083
 H         1.978446         3.842336         0.019765
 H         0.327978         3.113378        -0.320618
 H         3.702594         2.074502         1.346807
 H         2.377645         0.890005         1.947282
 H         3.105733        -0.872968        -1.237987
 H         3.245573         1.770971        -2.019709
 H         0.159634        -0.422548         1.251596
 H        -0.505555         0.822759         0.259461
 H        -0.678967        -0.854949        -0.243039
