19
Iteration:   577
 C         1.340052         3.015107         0.187857
 C         2.007748         1.712770         0.081232
 C         2.947899         1.109412         1.110274
 O         3.644355         0.142366         0.354720
 C         2.712512        -0.032586        -0.729954
 C         2.475563         1.382848        -1.395050
 O         1.166737         1.074123        -1.856756
 C         1.222419         0.424671        -0.430091
 C         0.113296        -0.259052         0.295704
 H         0.751852         3.074720         1.129344
 H         2.054908         3.823609         0.182932
 H         0.723215         3.102274        -0.623543
 H         3.581115         1.979909         1.461621
 H         2.531143         0.650038         1.928636
 H         2.981957        -0.993104        -1.373977
 H         3.154338         1.942060        -2.032943
 H         0.268799        -0.045979         1.423164
 H        -0.859430         0.208696         0.172802
 H         0.084231        -1.257991         0.135006
