19
Iteration:  4436charge 0 multiplicity 1
 C         1.131142         3.024591         0.258013
 C         2.029573         1.741491         0.056815
 C         3.035787         1.240135         1.101907
 O         3.631898         0.167866         0.368589
 C         2.699829        -0.102820        -0.753065
 C         2.656397         1.270220        -1.353047
 O         1.191708         0.996638        -1.805571
 C         1.348907         0.422754        -0.358409
 C        -0.019021        -0.192143         0.132520
 H         0.593454         2.744045         1.102506
 H         1.800380         3.966025         0.489133
 H         0.654259         3.371878        -0.667762
 H         3.795760         2.035303         1.494820
 H         2.407930         0.973253         2.047218
 H         2.836773        -0.989358        -1.288826
 H         3.291117         1.757381        -2.070036
 H         0.129674        -0.634876         1.122109
 H        -0.876152         0.512772         0.183676
 H        -0.311928        -1.035430        -0.622508
