19
Iteration:   804
 C         1.200905         3.042215         0.519209
 C         2.026062         1.805134        -0.006049
 C         3.281131         1.417458         0.802658
 O         3.341399         0.016246         0.558785
 C         2.695670        -0.078095        -0.699355
 C         2.509750         1.394570        -1.400007
 O         1.228880         0.937070        -1.906743
 C         1.274215         0.422929        -0.513615
 C         0.082976        -0.313433         0.201523
 H         0.798451         2.890531         1.646614
 H         1.840143         3.906901         0.530374
 H         0.439494         3.163972        -0.171919
 H         4.099797         1.885309         0.401500
 H         3.248208         1.535140         1.982072
 H         2.930196        -1.082181        -1.294879
 H         3.335609         1.757675        -1.898544
 H         0.126961        -0.364868         1.403001
 H        -0.750796         0.308721        -0.085646
 H         0.033007        -1.362483         0.013929
