19
Iteration:   127
 C         1.060679         2.932499         0.276447
 C         1.999616         1.749439         0.057009
 C         3.146150         1.457969         0.938305
 O         3.393011        -0.010266         0.545662
 C         2.666927        -0.072919        -0.763837
 C         2.597524         1.304088        -1.349618
 O         1.329868         1.041312        -1.938722
 C         1.289270         0.421423        -0.428401
 C         0.159454        -0.215738         0.293804
 H         0.915461         3.178170         1.332050
 H         1.405388         3.811992        -0.209113
 H        -0.008911         2.681677        -0.120555
 H         4.033181         2.027984         0.653971
 H         2.935700         1.428744         2.103056
 H         3.028094        -0.998101        -1.360213
 H         3.375773         1.739991        -2.041977
 H         0.655244        -0.209939         1.363787
 H        -0.809218         0.355734         0.217403
 H        -0.051532        -1.252721        -0.118115
