19
Iteration:  1158charge 0 multiplicity 1
 C         1.331130         3.002562         0.162620
 C         2.029072         1.746073         0.010783
 C         2.996619         1.196772         1.157659
 O         3.623155         0.179165         0.414009
 C         2.790779         0.054097        -0.731769
 C         2.445957         1.355807        -1.464875
 O         1.110671         0.822748        -1.805794
 C         1.292223         0.445579        -0.375191
 C         0.099400        -0.203835         0.267026
 H         0.911631         3.113467         1.135725
 H         2.020288         3.858910         0.003596
 H         0.503735         3.134310        -0.665605
 H         3.485593         2.078717         1.464266
 H         2.539593         0.731126         2.186423
 H         2.937625        -0.795582        -1.224876
 H         3.106003         1.864880        -2.299754
 H         0.134075        -0.974705         1.066169
 H        -0.546340         0.672868         0.687710
 H        -0.567999        -0.699865        -0.583887
