19
Iteration:  2188charge 0 multiplicity 1
 C         1.251782         3.104478         0.255223
 C         2.030021         1.808092         0.075310
 C         3.193008         1.464178         0.963135
 O         3.454038         0.038976         0.527309
 C         2.617009        -0.091612        -0.680718
 C         2.468093         1.316131        -1.337248
 O         1.197190         0.908113        -1.933854
 C         1.254512         0.456842        -0.391892
 C         0.166583        -0.381890         0.169611
 H         0.792055         3.044359         1.205455
 H         1.967849         4.018603         0.245398
 H         0.620935         3.407867        -0.509733
 H         4.106056         2.052402         0.827832
 H         2.750848         1.456846         2.039192
 H         2.685008        -0.977308        -1.186505
 H         3.194634         1.889662        -1.906619
 H         0.660689        -0.858553         1.013801
 H        -0.766238         0.207955         0.415228
 H        -0.126827        -1.330800        -0.463734
