19
Iteration:   661charge 0 multiplicity 1
 C         1.167086         3.022030         0.501279
 C         2.010020         1.769057         0.049590
 C         3.288246         1.454093         0.874737
 O         3.395544         0.035508         0.534406
 C         2.655447        -0.123306        -0.692361
 C         2.588067         1.266257        -1.452084
 O         1.227716         0.998010        -1.953699
 C         1.227279         0.544355        -0.471058
 C         0.087971        -0.320113         0.203517
 H         0.758047         2.869485         1.589396
 H         1.829903         3.897710         0.516211
 H         0.289559         3.199984        -0.231568
 H         4.102297         2.084576         0.548695
 H         3.170660         1.382246         2.057749
 H         2.807241        -1.134167        -1.025407
 H         3.361912         1.636750        -2.123606
 H         0.635025        -0.952563         0.944804
 H        -0.684556         0.359496         0.615604
 H        -0.454792        -1.043597        -0.534937
