19
Iteration:  1219charge 0 multiplicity 1
 C         1.199290         2.935143         0.216063
 C         2.082648         1.774682        -0.023371
 C         3.195769         1.407090         0.898732
 O         3.385931        -0.010515         0.572175
 C         2.717329        -0.069563        -0.670504
 C         2.477084         1.399931        -1.350266
 O         1.167228         0.965835        -1.851701
 C         1.275077         0.494946        -0.452169
 C         0.159042        -0.246637         0.268030
 H         0.474312         2.680551         1.063854
 H         1.764476         3.772624         0.591051
 H         0.548687         3.151444        -0.607916
 H         4.152453         2.023900         0.649698
 H         2.977811         1.341627         1.919025
 H         3.098051        -1.053377        -1.246108
 H         3.015820         1.871741        -2.089758
 H         0.553216        -0.227833         1.314618
 H        -0.813811         0.195755         0.191360
 H         0.178428        -1.206891        -0.132866
