19
Iteration:  3844
 C         1.212854         3.074315         0.323128
 C         1.958898         1.804660         0.071492
 C         3.148214         1.300209         1.017802
 O         3.482787         0.003247         0.475846
 C         2.687085        -0.015380        -0.674627
 C         2.546819         1.324459        -1.412107
 O         1.193318         0.952514        -1.857017
 C         1.273108         0.481972        -0.458750
 C         0.151269        -0.295772         0.140189
 H         0.712737         2.970854         1.239720
 H         1.862104         4.046759         0.473192
 H         0.536139         3.118671        -0.551225
 H         3.977025         2.120823         0.903395
 H         2.898904         1.243156         2.139613
 H         2.782972        -0.997373        -1.164967
 H         3.290143         1.667984        -2.116933
 H         0.374876        -0.595359         1.237283
 H        -0.729594         0.400396         0.147604
 H        -0.182261        -1.181618        -0.478492
