19
Iteration:  4235
 C         1.149128         2.971255         0.374700
 C         2.047502         1.781965         0.020907
 C         3.166076         1.394992         0.949400
 O         3.459715         0.049913         0.584845
 C         2.680605        -0.073934        -0.798055
 C         2.590306         1.297779        -1.328052
 O         1.215260         0.946523        -1.871152
 C         1.312820         0.438072        -0.489646
 C         0.071231        -0.197452         0.147213
 H         0.553252         2.617356         1.259007
 H         1.763357         3.772583         0.620239
 H         0.363732         3.170403        -0.357136
 H         4.017134         2.158962         0.950467
 H         2.776828         1.408020         2.030284
 H         3.083584        -0.949715        -1.428203
 H         3.099323         1.821391        -2.162265
 H         0.420972        -0.645685         1.119160
 H        -0.728727         0.522640         0.311095
 H        -0.278219        -0.991049        -0.462319
