19
Iteration:  3544charge 0 multiplicity 1
 C         1.148536         2.937891         0.295813
 C         2.026995         1.790894         0.039101
 C         3.222946         1.379659         0.974666
 O         3.527147        -0.021785         0.520124
 C         2.730670        -0.050859        -0.626095
 C         2.545158         1.353796        -1.368026
 O         1.186370         0.993576        -1.921008
 C         1.232451         0.435731        -0.421690
 C         0.063502        -0.203332         0.136846
 H         0.563178         2.843875         1.265203
 H         1.902884         3.826213         0.398184
 H         0.401044         3.096366        -0.494818
 H         4.060392         2.023784         0.744508
 H         2.924244         1.436271         2.005010
 H         2.883239        -1.043777        -1.061929
 H         3.137292         1.831705        -2.111992
 H         0.361209        -0.643070         1.133986
 H        -0.805542         0.482890         0.400749
 H        -0.403556        -0.948769        -0.416690
