19
Iteration:  1403
 C         1.254028         3.106585         0.263919
 C         1.995243         1.816853         0.047130
 C         3.069349         1.391822         0.955920
 O         3.598492         0.086179         0.450275
 C         2.795864        -0.081978        -0.660707
 C         2.480143         1.253963        -1.437729
 O         1.195714         0.859917        -1.782507
 C         1.255843         0.425951        -0.371504
 C         0.038668        -0.234962         0.149248
 H         0.477992         2.974752         1.117945
 H         1.930772         3.864763         0.676413
 H         0.682983         3.362822        -0.538053
 H         3.889573         2.002153         1.017750
 H         2.650438         1.173127         2.018724
 H         2.918687        -0.980077        -1.302529
 H         3.057186         1.768963        -2.120377
 H         0.274513        -0.610624         1.202755
 H        -0.876855         0.413926         0.181741
 H        -0.295091        -1.067026        -0.476917
