19
Iteration:  2917
 C         1.325285         3.122762         0.262230
 C         1.962087         1.766102         0.115236
 C         3.078936         1.421091         1.041001
 O         3.589211         0.059595         0.431817
 C         2.682257        -0.042299        -0.682723
 C         2.456195         1.265707        -1.420718
 O         1.202464         0.887545        -1.848809
 C         1.252066         0.427973        -0.346791
 C         0.078238        -0.284284         0.132846
 H         0.640844         3.207078         1.110973
 H         2.075750         3.826575         0.389504
 H         0.699335         3.256694        -0.683242
 H         3.866371         2.121159         0.993010
 H         2.804751         1.208424         2.086427
 H         2.756866        -1.069926        -1.239647
 H         3.002781         1.996344        -2.087908
 H         0.314304        -0.532438         1.129849
 H        -0.868173         0.184828        -0.094941
 H         0.101908        -1.298456        -0.325823
