19
Iteration:  4371charge 0 multiplicity 1
 C         1.223602         3.042544         0.310750
 C         1.991863         1.757975         0.050746
 C         3.113277         1.353918         1.029816
 O         3.441414         0.029577         0.566216
 C         2.688046        -0.066199        -0.731069
 C         2.609510         1.392708        -1.371306
 O         1.193963         0.959316        -1.879812
 C         1.207283         0.419453        -0.509026
 C         0.161217        -0.281807         0.084025
 H         0.821839         3.032843         1.304711
 H         1.939875         3.974160         0.292218
 H         0.355280         3.264935        -0.339941
 H         4.142287         1.861286         1.032553
 H         2.900811         1.440556         2.166425
 H         2.852275        -0.982427        -1.207930
 H         3.271562         2.023507        -1.938159
 H         0.635010        -0.698042         0.991688
 H        -0.666263         0.253688         0.592374
 H        -0.280383        -1.236360        -0.431130
