19
Iteration:  1725charge 0 multiplicity 1
 C         1.239935         3.069141         0.144382
 C         1.930145         1.658991         0.072247
 C         3.002829         1.253421         1.113893
 O         3.770713         0.224843         0.347578
 C         2.886034        -0.036226        -0.683698
 C         2.541121         1.200074        -1.336483
 O         1.185394         0.873720        -1.837868
 C         1.137409         0.496228        -0.393173
 C        -0.061058        -0.192157         0.254465
 H         0.390483         2.985038         0.794989
 H         2.039317         3.703926         0.604088
 H         0.823968         3.589875        -0.901047
 H         3.686353         2.027627         1.339926
 H         2.790041         0.724548         2.155557
 H         3.331226        -0.814329        -1.286439
 H         3.007556         1.781274        -2.149954
 H        -0.078398        -0.376151         1.345682
 H        -0.887434         0.512890         0.130076
 H        -0.428004        -0.926125        -0.431881
