19
Iteration:  1703
 C         1.302567         3.060815         0.208942
 C         2.028445         1.704596         0.024229
 C         2.964011         1.293766         1.062476
 O         3.718676         0.192157         0.409179
 C         2.832004        -0.024386        -0.695996
 C         2.449737         1.331118        -1.376696
 O         1.152628         0.804378        -1.745460
 C         1.301677         0.363233        -0.422983
 C        -0.057419        -0.167559         0.161644
 H         0.471577         3.139525         0.889686
 H         2.071712         3.799015         0.490578
 H         0.814594         3.385967        -0.855316
 H         3.683657         1.955578         1.460027
 H         2.418758         0.839629         1.969539
 H         3.150682        -0.941503        -1.175367
 H         2.883059         2.055908        -2.110764
 H         0.092832        -0.080886         1.244532
 H        -0.917114         0.459445        -0.031020
 H        -0.371687        -1.120491        -0.222944
