19
Iteration:  2340
 C         1.235403         3.066388         0.278107
 C         1.991537         1.847846         0.009938
 C         3.165972         1.423873         0.989439
 O         3.410080        -0.001482         0.488547
 C         2.712273        -0.054619        -0.665826
 C         2.582006         1.295409        -1.331424
 O         1.132271         0.908955        -1.894070
 C         1.244240         0.462665        -0.399113
 C         0.162672        -0.319793         0.199220
 H         0.743710         3.138837         1.215527
 H         2.047786         3.940201         0.367872
 H         0.421348         3.276065        -0.485094
 H         3.989066         2.022531         0.601120
 H         3.220960         1.484221         2.062338
 H         2.825121        -0.915164        -1.204026
 H         3.217965         1.728332        -2.084172
 H         0.463028        -0.526023         1.161738
 H        -0.858645         0.060647         0.244115
 H         0.195249        -1.212553        -0.536136
