19
Iteration:  1729charge 0 multiplicity 1
 C         1.221659         3.049528         0.124566
 C         1.955838         1.668773         0.056608
 C         3.005583         1.261362         1.125875
 O         3.765440         0.222243         0.340360
 C         2.846118        -0.061724        -0.671655
 C         2.522454         1.212119        -1.339423
 O         1.221346         0.883972        -1.811374
 C         1.150519         0.493594        -0.415988
 C        -0.075319        -0.193782         0.245337
 H         0.398332         3.079491         0.836337
 H         1.976386         3.692308         0.659671
 H         0.880784         3.460722        -0.714248
 H         3.750984         2.096720         1.305593
 H         2.778390         0.832995         2.000620
 H         3.299456        -0.861683        -1.219885
 H         3.013242         1.880687        -2.173146
 H         0.038334        -0.414718         1.319988
 H        -0.910137         0.525862         0.244040
 H        -0.447022        -0.971689        -0.412088
