19
Iteration:  2218charge 0 multiplicity 1
 C         1.197434         3.061640         0.196858
 C         2.060328         1.778385         0.038520
 C         3.111212         1.343520         0.954666
 O         3.427200         0.036942         0.592125
 C         2.755988        -0.051961        -0.730274
 C         2.533429         1.326818        -1.434077
 O         1.112989         0.962626        -1.836339
 C         1.335302         0.451106        -0.404260
 C         0.176987        -0.319585         0.195502
 H         0.736656         2.938324         1.183546
 H         1.934438         3.902575         0.380267
 H         0.239892         3.358984        -0.472299
 H         4.010548         2.022705         0.962323
 H         2.681117         1.462831         1.960966
 H         2.708551        -1.064323        -1.254712
 H         3.256659         1.875237        -2.136433
 H         0.637536        -0.652874         1.164087
 H        -0.533895         0.395263         0.509936
 H        -0.284075        -1.132377        -0.376111
