19
Iteration:  2231
 C         1.204651         3.027707         0.240066
 C         2.003219         1.770391        -0.037270
 C         3.096333         1.416102         1.082132
 O         3.506603         0.012911         0.514402
 C         2.709224        -0.108121        -0.713847
 C         2.485647         1.319573        -1.399089
 O         1.137118         0.973043        -1.843598
 C         1.308085         0.383008        -0.463336
 C         0.217463        -0.202488         0.255744
 H         0.642937         3.037308         1.136261
 H         1.846427         4.018064         0.103227
 H         0.602095         3.101783        -0.674578
 H         4.006294         2.030567         1.150794
 H         2.650419         1.142596         2.102915
 H         3.051687        -0.909438        -1.223749
 H         3.028822         1.930920        -2.120889
 H         0.468068        -0.735481         1.150185
 H        -0.598948         0.540821         0.341141
 H        -0.213330        -1.028343        -0.452008
