19
Iteration:  2572charge 0 multiplicity 1
 C         1.292693         3.100539         0.192814
 C         2.036631         1.783439         0.030106
 C         3.071776         1.311139         1.039701
 O         3.514463         0.062999         0.467347
 C         2.689430        -0.021764        -0.674851
 C         2.497738         1.338319        -1.384609
 O         1.130181         0.951296        -1.860844
 C         1.309860         0.409453        -0.434660
 C         0.115588        -0.334818         0.234614
 H         0.748552         3.292754         1.168432
 H         2.098250         3.945911         0.262063
 H         0.589047         3.044011        -0.591780
 H         3.925699         2.032928         1.264195
 H         2.596533         1.016127         2.057420
 H         2.926570        -0.788224        -1.367565
 H         3.200746         1.826040        -2.079903
 H         0.529434        -0.711392         1.254172
 H        -0.721108         0.364143         0.570452
 H        -0.293913        -1.106665        -0.464844
