19
Iteration:  1805charge 0 multiplicity 1
 C         1.212485         3.066626         0.229028
 C         1.965672         1.760500         0.027942
 C         3.128855         1.476525         1.001779
 O         3.340479         0.059315         0.516573
 C         2.658408        -0.077473        -0.724138
 C         2.579535         1.265121        -1.351654
 O         1.269817         0.982337        -1.906554
 C         1.234890         0.427741        -0.435969
 C         0.190354        -0.353511         0.245627
 H         1.241708         3.228211         1.312082
 H         1.851904         3.997599        -0.067303
 H         0.174405         3.178963        -0.121494
 H         4.105464         2.018874         0.796682
 H         2.963201         1.408840         2.090316
 H         2.849062        -1.017449        -1.220842
 H         3.331233         1.801663        -2.071687
 H         0.783704        -0.769456         1.057476
 H        -0.655160         0.116121         0.708943
 H         0.018044        -1.234388        -0.342245
