19
Iteration:  1147charge 0 multiplicity 1
 C         1.316749         3.082310         0.177365
 C         1.979752         1.700677         0.050998
 C         3.064632         1.322964         1.142151
 O         3.615291         0.187189         0.395054
 C         2.788067        -0.014469        -0.741559
 C         2.454729         1.280326        -1.390685
 O         1.104949         0.871610        -1.793227
 C         1.276076         0.343607        -0.395284
 C         0.054800        -0.209040         0.220423
 H         0.923331         3.340944         1.130605
 H         2.126259         3.801963        -0.046636
 H         0.455465         3.178480        -0.598746
 H         3.907907         1.931801         1.382732
 H         2.498283         0.888360         2.112676
 H         3.150618        -0.760890        -1.308880
 H         3.141017         1.921399        -2.076132
 H         0.285124        -1.085862         0.847359
 H        -0.643451         0.571341         0.726519
 H        -0.504407        -0.625837        -0.741088
