19
Iteration:   715
 C         1.325892         3.057265         0.136461
 C         1.994845         1.676037         0.081303
 C         2.982321         1.194297         1.168413
 O         3.618899         0.062067         0.384924
 C         2.816659         0.014863        -0.794409
 C         2.396011         1.386616        -1.374312
 O         1.087981         1.016057        -1.761342
 C         1.294996         0.352682        -0.468604
 C         0.150588        -0.211729         0.240392
 H         0.603580         3.210097         1.026577
 H         2.048366         3.900035         0.169014
 H         0.645363         3.191373        -0.793943
 H         3.748367         1.878309         1.442781
 H         2.415641         0.848557         2.131072
 H         3.133364        -0.836832        -1.352937
 H         3.009186         1.989557        -2.046138
 H         0.344770        -0.754050         1.163458
 H        -0.224457         0.715490         0.673249
 H        -0.487838        -0.854514        -0.446284
