19
Iteration:  1185
 C         1.138339         3.098018         0.225294
 C         2.009753         1.806514        -0.041350
 C         2.994724         1.257328         1.044589
 O         3.572618         0.081282         0.383675
 C         2.765645        -0.083322        -0.716503
 C         2.543250         1.267149        -1.373411
 O         1.177978         0.926483        -1.832818
 C         1.275451         0.400564        -0.460173
 C         0.186097        -0.158586         0.348532
 H         0.534691         2.966515         1.181562
 H         1.818535         3.968493         0.290229
 H         0.536475         3.428329        -0.545135
 H         3.672135         2.102743         1.445940
 H         2.474940         0.876145         1.923737
 H         3.085672        -1.057568        -1.415536
 H         3.266456         1.684040        -2.001488
 H         0.601321        -0.577908         1.339099
 H        -0.557983         0.546474         0.638670
 H        -0.317235        -0.934146        -0.185515
