19
Iteration:  4018charge 0 multiplicity 1
 C         1.307243         3.093124         0.214197
 C         2.019404         1.722215         0.013853
 C         2.965648         1.199569         1.095226
 O         3.602320         0.126579         0.413784
 C         2.772595        -0.052145        -0.658976
 C         2.446861         1.389456        -1.389513
 O         1.177212         0.959301        -1.801345
 C         1.219535         0.410645        -0.441674
 C         0.092048        -0.267247         0.187123
 H         0.975690         3.018093         1.290690
 H         2.225727         3.771609        -0.007557
 H         0.506749         3.283391        -0.552781
 H         3.686939         1.955262         1.365004
 H         2.400847         0.957581         2.029118
 H         3.215827        -0.931576        -1.276671
 H         3.114221         1.931806        -2.015832
 H         0.473256        -0.614674         1.185706
 H        -0.650826         0.520889         0.274637
 H        -0.221180        -1.032351        -0.517902
