19
Iteration:  4598
 C         1.178072         2.959860         0.303939
 C         2.018507         1.727585        -0.024923
 C         3.020541         1.271763         1.023357
 O         3.620693         0.061843         0.485348
 C         2.705164        -0.064852        -0.718755
 C         2.566017         1.351278        -1.367822
 O         1.236201         1.018046        -1.840892
 C         1.291823         0.473906        -0.395669
 C         0.043670        -0.185589         0.166838
 H         0.617570         2.693773         1.175701
 H         1.576993         3.983682         0.413180
 H         0.424631         3.318297        -0.479955
 H         3.880830         1.950164         1.179895
 H         2.406521         1.195634         2.015944
 H         3.001040        -0.883387        -1.275793
 H         3.352956         1.501877        -2.121667
 H         0.349413        -0.855571         1.049715
 H        -0.800682         0.512550         0.332386
 H        -0.315498        -0.918694        -0.626755
