19
Iteration:  2908charge 0 multiplicity 1
 C         1.278291         3.135116         0.274206
 C         1.979253         1.793104         0.083806
 C         3.127075         1.365911         1.014540
 O         3.474682         0.080938         0.434020
 C         2.711292        -0.047353        -0.662037
 C         2.541495         1.254316        -1.423752
 O         1.137332         0.894686        -1.806240
 C         1.308509         0.447890        -0.393125
 C         0.116324        -0.355482         0.147929
 H         0.687721         3.145962         1.083676
 H         1.970160         3.973927         0.316900
 H         0.661276         3.480982        -0.623578
 H         3.924989         2.098190         1.028337
 H         2.910079         1.252560         2.051203
 H         2.911265        -0.947885        -1.251761
 H         3.202421         1.868263        -2.112013
 H         0.015206        -0.487037         1.277407
 H        -0.758620         0.302117        -0.095791
 H         0.015027        -1.243330        -0.397666
