19
Iteration:  2243
 C         1.224826         2.981026         0.157717
 C         2.031213         1.752379         0.083324
 C         3.006530         1.280423         1.031860
 O         3.555392         0.077723         0.415935
 C         2.781583        -0.032321        -0.665724
 C         2.547815         1.381688        -1.432739
 O         1.186976         0.913713        -1.804116
 C         1.265348         0.444982        -0.448910
 C         0.077921        -0.191894         0.290194
 H         0.622023         2.977925         1.054369
 H         1.877176         3.952535         0.188351
 H         0.492703         2.993138        -0.608446
 H         3.814534         2.011831         1.099540
 H         2.634981         1.129212         2.116063
 H         3.012292        -0.819636        -1.231470
 H         3.182546         1.772747        -2.201789
 H         0.455428        -0.564819         1.221526
 H        -0.759533         0.534173         0.541841
 H        -0.348420        -1.065810        -0.341942
