19
Iteration:  1635charge 0 multiplicity 1
 C         1.223257         3.012863         0.252889
 C         2.033027         1.801304         0.045186
 C         3.162184         1.436948         0.886250
 O         3.290266        -0.000722         0.613233
 C         2.704267        -0.048276        -0.715492
 C         2.567223         1.302137        -1.383556
 O         1.219327         1.000204        -1.916690
 C         1.285991         0.473320        -0.389425
 C         0.221056        -0.382702         0.258611
 H         0.875408         3.413737         1.264514
 H         1.718606         3.862790        -0.172464
 H         0.229072         2.761872        -0.290237
 H         4.071506         1.954819         0.748322
 H         2.905570         1.496079         2.041657
 H         2.949738        -0.974910        -1.414546
 H         3.106128         1.908477        -2.025178
 H         0.485846        -0.547835         1.243061
 H        -0.661913         0.276662         0.334132
 H        -0.120544        -1.111590        -0.506124
