19
Iteration:   843
 C         1.229871         2.953660         0.289190
 C         2.061637         1.806634         0.058194
 C         3.086421         1.306837         1.000388
 O         3.532878         0.066534         0.399696
 C         2.726103        -0.062248        -0.732965
 C         2.561446         1.350888        -1.389640
 O         1.117315         0.948274        -1.794919
 C         1.308618         0.428689        -0.393685
 C         0.097560        -0.182350         0.220543
 H         0.756427         2.812171         1.200978
 H         1.788503         3.929517         0.394686
 H         0.385877         3.093043        -0.508014
 H         3.956680         2.084850         1.185385
 H         2.696916         1.012792         1.935851
 H         2.897619        -0.936230        -1.291623
 H         3.149351         1.792345        -2.303856
 H         0.273847        -0.524878         1.172485
 H        -0.762934         0.510743         0.146859
 H        -0.321022        -1.055152        -0.415503
