19
Iteration:  2881charge 0 multiplicity 1
 C         1.281733         2.993015         0.222984
 C         2.105039         1.823990        -0.007381
 C         3.134694         1.450111         0.981141
 O         3.445016        -0.037547         0.574043
 C         2.713370        -0.074687        -0.643032
 C         2.464489         1.342034        -1.441840
 O         1.143771         0.992832        -1.802539
 C         1.289938         0.446467        -0.459518
 C         0.135606        -0.324499         0.172177
 H         0.690380         2.856789         1.282623
 H         1.738207         4.024949         0.227958
 H         0.570825         3.142567        -0.542933
 H         4.060608         2.060855         0.919024
 H         2.667004         1.462585         2.023244
 H         2.877399        -0.956559        -1.371029
 H         3.011354         2.027046        -2.080968
 H         0.277041        -0.366312         1.255940
 H        -0.846072         0.124677         0.243692
 H         0.115166        -1.359856        -0.376007
