19
Iteration:   456
 C         1.261026         3.041783         0.215568
 C         1.974352         1.726285         0.123460
 C         3.004352         1.226724         1.141953
 O         3.700464         0.143849         0.307810
 C         2.825066        -0.073358        -0.752796
 C         2.495101         1.365815        -1.360102
 O         1.154682         0.919924        -1.791913
 C         1.257173         0.382765        -0.393942
 C        -0.021901        -0.154915         0.156728
 H         0.696419         3.231492         1.170214
 H         1.989748         3.811592         0.095827
 H         0.551357         3.016083        -0.609088
 H         3.721330         1.985918         1.592384
 H         2.492079         0.698647         1.960794
 H         3.122922        -0.913152        -1.396625
 H         3.075160         1.947141        -2.063739
 H         0.276342        -0.868195         0.938038
 H        -0.382188         0.622991         0.822124
 H        -0.680544        -0.553735        -0.521376
