19
Iteration:  4379
 C         1.263245         3.057768         0.315253
 C         1.987925         1.759662         0.097069
 C         3.111210         1.372992         0.969159
 O         3.411403         0.024810         0.499338
 C         2.751762        -0.016562        -0.664116
 C         2.547391         1.341441        -1.298190
 O         1.227817         0.961817        -1.862667
 C         1.287610         0.381149        -0.533065
 C         0.079708        -0.302615         0.100995
 H         0.696662         2.985839         1.248682
 H         1.888015         3.962452         0.446863
 H         0.387547         3.131745        -0.415938
 H         3.994911         2.080986         0.869630
 H         2.692656         1.234516         1.993203
 H         2.927853        -0.889894        -1.268222
 H         3.129749         1.932093        -2.038911
 H         0.734944        -0.655991         0.953437
 H        -0.549782         0.569333         0.392565
 H        -0.397035        -1.085956        -0.396758
