19
Iteration:     1charge 0 multiplicity 1
 C         1.207760         3.035326         0.203084
 C         1.994273         1.763597         0.024015
 C         3.061435         1.357589         1.030983
 O         3.533488         0.106536         0.485182
 C         2.752362        -0.033861        -0.673541
 C         2.527623         1.327896        -1.381287
 O         1.190695         0.912687        -1.811107
 C         1.283266         0.425642        -0.424017
 C         0.117908        -0.291472         0.177285
 H         0.646127         3.027888         1.144049
 H         1.863657         3.912776         0.216457
 H         0.498514         3.147755        -0.621768
 H         3.891633         2.072476         1.094211
 H         2.663287         1.197151         2.041038
 H         2.984444        -0.940337        -1.228531
 H         3.147798         1.876308        -2.090334
 H         0.376172        -0.652218         1.178108
 H        -0.751929         0.368090         0.259281
 H        -0.159193        -1.153511        -0.437268
