19
Iteration:  1957charge 0 multiplicity 1
 C         1.218970         3.026678         0.271428
 C         1.991029         1.731285         0.021805
 C         3.027885         1.340767         0.916593
 O         3.501246         0.100631         0.505460
 C         2.716078        -0.050632        -0.676444
 C         2.564491         1.328777        -1.365781
 O         1.251403         0.989295        -1.906086
 C         1.243884         0.391740        -0.399707
 C         0.130371        -0.242470         0.289741
 H         0.838762         3.165436         1.219861
 H         1.792022         3.904421        -0.253489
 H         0.306009         3.091985        -0.376562
 H         3.876925         1.944336         0.976818
 H         2.619508         1.169354         1.977224
 H         2.989034        -0.975843        -1.257240
 H         3.373496         1.779196        -2.080418
 H         0.573077        -0.722226         1.250859
 H        -0.877928         0.207602         0.431052
 H        -0.163575        -1.132239        -0.351966
