19
Iteration:  4477
 C         1.229894         3.039551         0.275984
 C         1.977235         1.751092         0.069575
 C         3.094061         1.329195         1.081228
 O         3.397434        -0.003345         0.529927
 C         2.766404         0.016538        -0.813889
 C         2.575427         1.426424        -1.335981
 O         1.162497         0.937026        -1.865448
 C         1.299407         0.377077        -0.508912
 C         0.146868        -0.297166         0.174702
 H         0.852107         3.124586         1.318614
 H         1.877669         3.961949         0.147564
 H         0.414392         3.336245        -0.486435
 H         3.985306         1.925701         1.079869
 H         2.819997         1.015780         2.040774
 H         2.979039        -0.872220        -1.330253
 H         3.338574         2.070627        -1.817326
 H         0.522564        -0.420949         1.238449
 H        -0.568816         0.552599        -0.011584
 H        -0.176988        -1.171162        -0.307458
