19
Iteration:   627charge 0 multiplicity 1
 C         1.285207         2.994589         0.340466
 C         2.024589         1.727513         0.075644
 C         3.231183         1.369266         0.987642
 O         3.547005         0.014575         0.472914
 C         2.772444        -0.072448        -0.708130
 C         2.422632         1.468661        -1.427278
 O         1.095846         0.865851        -1.786931
 C         1.280443         0.428613        -0.396546
 C         0.049009        -0.205401         0.079847
 H         0.736511         2.984745         1.317581
 H         2.031819         3.845503         0.349910
 H         0.521521         3.258084        -0.548836
 H         4.080396         2.021593         1.071803
 H         2.763301         1.314856         2.104681
 H         2.927309        -0.980161        -1.143436
 H         2.992403         2.151075        -2.117099
 H        -0.015076        -0.464249         1.103786
 H        -0.775372         0.544678        -0.071535
 H        -0.251712        -1.118919        -0.642502
