19
Iteration:  1011
 C         1.260577         2.994718         0.176862
 C         2.054962         1.801457         0.007080
 C         3.004255         1.179756         1.122346
 O         3.709998         0.143880         0.377771
 C         2.865672        -0.011854        -0.751519
 C         2.437001         1.353152        -1.494372
 O         1.086736         0.905473        -1.702597
 C         1.285188         0.404957        -0.391081
 C        -0.015795        -0.145485         0.257691
 H         0.623157         3.083928         1.183067
 H         1.933078         3.851106         0.307915
 H         0.652570         3.087880        -0.661153
 H         3.740710         1.882146         1.640023
 H         2.471778         0.580554         1.849823
 H         3.234172        -1.023520        -1.394719
 H         3.024647         1.759727        -2.243112
 H        -0.024031        -0.138884         1.397505
 H        -0.740422         0.509933        -0.171627
 H        -0.278024        -1.119240        -0.018188
