19
Iteration:   962charge 0 multiplicity 1
 C         1.190620         3.061985         0.343929
 C         2.043298         1.828403         0.056028
 C         3.280038         1.428641         0.867431
 O         3.453705        -0.006174         0.534740
 C         2.700113        -0.081337        -0.696013
 C         2.570774         1.337907        -1.357338
 O         1.193216         0.958124        -1.892452
 C         1.207283         0.449127        -0.406204
 C         0.032908        -0.362233         0.200758
 H         0.898001         2.961723         1.353151
 H         1.776172         4.046991         0.433046
 H         0.189061         3.220509        -0.306669
 H         4.124641         1.984623         0.435550
 H         3.239285         1.490534         1.969961
 H         2.865246        -0.927210        -1.226452
 H         3.104722         1.884113        -2.268000
 H         0.443042        -0.580884         1.159057
 H        -0.920285         0.251021         0.290097
 H        -0.291149        -1.333989        -0.400381
