19
Iteration:  2571charge 0 multiplicity 1
 C         1.300030         3.100364         0.196167
 C         2.037182         1.790970         0.026985
 C         3.063514         1.300801         1.043325
 O         3.516665         0.068910         0.463867
 C         2.686508        -0.025362        -0.675443
 C         2.494956         1.336940        -1.386702
 O         1.136300         0.948296        -1.855479
 C         1.310007         0.410251        -0.433453
 C         0.112195        -0.330991         0.237892
 H         0.754297         3.292210         1.130287
 H         2.093325         3.938693         0.253970
 H         0.577851         3.016517        -0.602268
 H         3.910659         2.058224         1.272853
 H         2.619231         1.007586         2.062198
 H         2.909568        -0.763992        -1.377976
 H         3.200419         1.854202        -2.084820
 H         0.548088        -0.703330         1.223402
 H        -0.741242         0.353338         0.576322
 H        -0.293395        -1.144279        -0.478651
