19
Iteration:  2766charge 0 multiplicity 1
 C         1.249293         3.053375         0.279367
 C         2.017513         1.763256         0.097114
 C         3.165019         1.435313         1.007173
 O         3.481438         0.034841         0.451177
 C         2.723394        -0.032307        -0.665951
 C         2.533169         1.315114        -1.348741
 O         1.161061         0.874213        -1.880758
 C         1.234265         0.457280        -0.417748
 C         0.068009        -0.290192         0.195092
 H         0.599684         2.977223         1.103093
 H         1.861446         3.997185         0.213499
 H         0.666695         3.248770        -0.751991
 H         4.048397         2.127941         0.731346
 H         3.086965         1.442584         2.105223
 H         2.776957        -0.862587        -1.338215
 H         3.305310         1.872015        -1.990930
 H         0.477918        -0.869043         1.029548
 H        -0.835981         0.299260         0.465814
 H        -0.078843        -1.023839        -0.628250
