19
Iteration:  4187
 C         1.229678         3.076419         0.179974
 C         2.055607         1.740614         0.056338
 C         2.992716         1.306644         1.168024
 O         3.527260         0.038318         0.363306
 C         2.763282        -0.010700        -0.715933
 C         2.574533         1.299319        -1.372266
 O         1.143795         0.994327        -1.788835
 C         1.301703         0.492400        -0.447931
 C         0.089575        -0.295302         0.191244
 H         0.782749         3.132716         1.234116
 H         1.920641         3.945583        -0.148324
 H         0.272969         3.019931        -0.378632
 H         3.878225         1.934374         1.399375
 H         2.642728         0.946768         2.139971
 H         2.993431        -0.888583        -1.246354
 H         3.341571         1.893354        -2.007366
 H         0.400512        -0.744604         1.097513
 H        -0.831368         0.259149         0.373963
 H        -0.142006        -1.149425        -0.554450
