19
Iteration:  2654charge 0 multiplicity 1
 C         1.266465         2.958334         0.256291
 C         2.035992         1.696367         0.026592
 C         3.036761         1.356147         1.037944
 O         3.603876         0.139241         0.433317
 C         2.735506        -0.065033        -0.730051
 C         2.503750         1.313358        -1.364851
 O         1.127053         0.905685        -1.816666
 C         1.305871         0.397728        -0.393066
 C         0.089245        -0.131826         0.204872
 H         0.682470         2.944504         1.182287
 H         1.953044         3.757509         0.275737
 H         0.502100         3.202721        -0.606330
 H         3.846298         2.072492         1.194940
 H         2.710010         1.098334         2.047384
 H         2.766841        -1.028658        -1.367762
 H         3.075929         1.995907        -2.045129
 H         0.108704        -0.564054         1.131406
 H        -0.615972         0.643406         0.107989
 H        -0.321130        -0.963068        -0.421440
