19
Iteration:  4478charge 0 multiplicity 1
 C         1.227893         3.041186         0.281586
 C         1.973111         1.751648         0.070670
 C         3.090813         1.331879         1.076211
 O         3.388478        -0.007783         0.522177
 C         2.767472         0.019249        -0.805522
 C         2.577128         1.423413        -1.339016
 O         1.167778         0.940285        -1.863860
 C         1.297798         0.378290        -0.507073
 C         0.152446        -0.304599         0.182394
 H         0.875781         3.105673         1.306394
 H         1.883518         3.999244         0.123959
 H         0.432215         3.339027        -0.486620
 H         4.016809         1.917086         1.077562
 H         2.807602         1.049288         2.056656
 H         2.984821        -0.843258        -1.317007
 H         3.329666         2.046820        -1.833842
 H         0.517349        -0.410596         1.225053
 H        -0.524909         0.547078        -0.037416
 H        -0.189262        -1.188881        -0.341875
