19
Iteration:  1653charge 0 multiplicity 1
 C         1.176050         3.042174         0.251583
 C         2.000034         1.773520        -0.070172
 C         3.164938         1.408045         0.948998
 O         3.389841         0.007926         0.578442
 C         2.616625        -0.081996        -0.616694
 C         2.561688         1.359455        -1.387240
 O         1.258862         1.013507        -1.904509
 C         1.255345         0.472755        -0.471274
 C         0.176976        -0.349851         0.238318
 H         1.020183         2.944033         1.395840
 H         1.609075         4.059233        -0.017074
 H         0.241539         3.052200        -0.092560
 H         4.183035         1.895855         0.653423
 H         3.100010         1.448835         2.018371
 H         2.791856        -1.029463        -1.016108
 H         3.402369         1.712565        -2.053484
 H         0.585174        -0.361017         1.331155
 H        -0.888581        -0.010297         0.288007
 H         0.230206        -1.359982        -0.199321
