19
Iteration:  3345charge 0 multiplicity 1
 C         1.222211         3.067349         0.277097
 C         1.993407         1.752016         0.074183
 C         3.080131         1.232371         1.071715
 O         3.628377         0.063883         0.430063
 C         2.792061        -0.003386        -0.684614
 C         2.563701         1.378660        -1.431421
 O         1.164499         0.814699        -1.892205
 C         1.210603         0.476048        -0.409581
 C         0.002935        -0.165992         0.218543
 H         0.421942         3.067818         1.074821
 H         1.954175         3.830420         0.417199
 H         0.790438         3.317839        -0.790610
 H         3.831941         1.961904         1.362984
 H         2.587386         0.863505         2.001193
 H         3.214545        -0.906873        -1.298767
 H         3.074024         2.117580        -2.150686
 H         0.101513        -0.813556         1.149996
 H        -0.610873         0.737247         0.511245
 H        -0.346716        -0.902465        -0.459319
