19
Iteration:   389charge 0 multiplicity 1
 C         1.236762         3.055038         0.318779
 C         2.021883         1.811680         0.011685
 C         3.133908         1.323970         0.891891
 O         3.309484        -0.090499         0.566707
 C         2.753053        -0.025145        -0.709826
 C         2.519209         1.454948        -1.404382
 O         1.176434         0.952858        -1.811032
 C         1.307301         0.525247        -0.445099
 C         0.206837        -0.353740         0.188472
 H         0.578233         2.905798         1.192730
 H         1.845122         3.833013         0.551918
 H         0.575025         3.329902        -0.578263
 H         4.204620         1.683031         0.628259
 H         2.873332         1.564090         1.905238
 H         2.962338        -0.801669        -1.328565
 H         3.212043         2.060939        -2.053669
 H         0.370062        -0.566317         1.179992
 H        -0.742353         0.100795         0.320663
 H         0.271909        -1.233221        -0.307096
