19
Iteration:  4552
 C         1.286240         3.071544         0.197792
 C         1.965859         1.746114         0.026747
 C         3.009746         1.292208         1.058767
 O         3.604915         0.018963         0.459198
 C         2.819040         0.028816        -0.665678
 C         2.535922         1.409704        -1.307523
 O         1.138826         0.950638        -1.816567
 C         1.284448         0.386400        -0.397421
 C         0.001923        -0.323650         0.111488
 H         0.687212         3.191416         1.120061
 H         2.035805         3.775809         0.307013
 H         0.782038         3.568379        -0.676866
 H         3.881001         1.929343         1.181367
 H         2.755887         0.853267         2.114132
 H         3.044680        -0.803662        -1.338322
 H         3.013317         2.183248        -1.977929
 H         0.189084        -0.980100         1.037837
 H        -0.756622         0.489635         0.203325
 H        -0.288437        -0.878084        -0.722358
