19
Iteration:  1307charge 0 multiplicity 1
 C         1.346728         3.138913         0.159962
 C         1.964578         1.753968         0.017095
 C         2.930955         1.212783         1.095067
 O         3.636945         0.134595         0.431088
 C         2.827644        -0.005455        -0.731476
 C         2.490054         1.382039        -1.399040
 O         1.080705         0.805954        -1.815306
 C         1.312112         0.411902        -0.367651
 C         0.109081        -0.244422         0.232041
 H         1.039663         3.295118         1.197221
 H         2.067240         3.871614        -0.070928
 H         0.419294         3.258172        -0.427294
 H         3.599885         2.014263         1.559322
 H         2.345653         0.781432         1.885886
 H         3.073612        -0.911615        -1.302108
 H         3.014893         1.936362        -2.133868
 H         0.260798        -0.580831         1.230083
 H        -0.597367         0.604731         0.343845
 H        -0.394719        -0.938735        -0.391161
