19
Iteration:  1242charge 0 multiplicity 1
 C         1.144091         3.125770         0.335096
 C         2.065856         1.798511         0.020773
 C         3.229023         1.440180         0.936819
 O         3.427512         0.000831         0.542176
 C         2.709129        -0.045759        -0.716833
 C         2.568633         1.259386        -1.495218
 O         1.133147         0.939072        -1.750692
 C         1.323041         0.438999        -0.372985
 C         0.106319        -0.347038         0.149595
 H         0.422106         3.207810         1.183983
 H         1.775385         3.960377         0.377920
 H         0.509268         3.149601        -0.610931
 H         4.144783         2.106657         0.653827
 H         3.093341         1.376412         1.935230
 H         2.782631        -1.067043        -1.141210
 H         3.189436         1.744765        -2.238419
 H         0.072524        -0.301309         1.192198
 H        -0.693096         0.254036        -0.275262
 H         0.059127        -1.332675        -0.202794
