19
Iteration:  1847
 C         1.339729         3.121604         0.133068
 C         2.020390         1.780419         0.091292
 C         3.033302         1.307180         1.101642
 O         3.545740         0.157796         0.410855
 C         2.789198        -0.005705        -0.737409
 C         2.475300         1.313231        -1.402712
 O         1.122570         0.819380        -1.714292
 C         1.333857         0.414583        -0.375659
 C         0.072468        -0.291833         0.124740
 H         0.780388         3.277387         1.031377
 H         2.162873         3.947357         0.036618
 H         0.448901         3.100650        -0.694940
 H         3.665834         1.948272         1.675529
 H         2.338263         0.758369         1.937783
 H         3.062995        -0.856495        -1.228573
 H         3.029918         1.959222        -2.168303
 H         0.237821        -0.611734         1.215377
 H        -0.790168         0.395044         0.157259
 H        -0.314797        -1.046833        -0.506901
