19
Iteration:  1448
 C         1.367039         3.167218         0.166297
 C         1.936889         1.736626         0.038156
 C         2.942643         1.212498         1.106310
 O         3.666610         0.173026         0.383699
 C         2.841139        -0.069817        -0.709746
 C         2.502645         1.373018        -1.415914
 O         1.164403         0.861015        -1.763532
 C         1.224541         0.377042        -0.386433
 C         0.048338        -0.256665         0.205334
 H         1.155913         3.499835         1.219202
 H         2.032537         3.849019        -0.291317
 H         0.400138         3.157454        -0.299372
 H         3.541288         1.987430         1.403714
 H         2.394660         0.754293         2.029154
 H         3.098132        -0.984553        -1.152283
 H         2.961439         2.017137        -2.085400
 H         0.008114        -0.223082         1.265505
 H        -0.871194         0.337006        -0.098099
 H        -0.286385        -1.239584        -0.145959
