19
Iteration:  4880charge 0 multiplicity 1
 C         1.348966         3.089399         0.328092
 C         1.979818         1.754576         0.049480
 C         3.087808         1.365781         1.026363
 O         3.480004         0.083715         0.465860
 C         2.661076        -0.027719        -0.706354
 C         2.568802         1.272410        -1.392137
 O         1.206052         0.985708        -1.852172
 C         1.191100         0.483529        -0.417849
 C         0.118304        -0.406428         0.097530
 H         0.814885         3.044223         1.300970
 H         1.921033         3.990875         0.186551
 H         0.446449         3.336173        -0.383271
 H         3.966719         2.063844         1.242768
 H         2.683534         1.247616         2.026696
 H         2.804961        -1.080304        -0.997022
 H         3.303442         1.947788        -1.967394
 H         0.451021        -0.590039         1.179964
 H        -0.860001         0.093531         0.046708
 H         0.099618        -1.360627        -0.463006
