19
Iteration:  3340
 C         1.229828         3.055241         0.276761
 C         2.014233         1.759314         0.073524
 C         3.038819         1.216851         1.084838
 O         3.630981         0.065686         0.412214
 C         2.793576        -0.040676        -0.640028
 C         2.520217         1.370258        -1.431552
 O         1.157782         0.841804        -1.884556
 C         1.242023         0.498646        -0.459354
 C         0.018216        -0.168722         0.235206
 H         0.427719         3.035584         1.007865
 H         1.976036         3.911626         0.398036
 H         0.774214         3.223921        -0.659464
 H         3.844314         1.989081         1.201969
 H         2.526665         1.027346         2.034778
 H         3.181453        -0.782304        -1.226049
 H         3.128298         1.970609        -2.067738
 H         0.282331        -0.721413         1.104709
 H        -0.614856         0.662263         0.442541
 H        -0.345569        -0.952194        -0.536378
