19
Iteration:    81charge 0 multiplicity 1
 C         1.234679         3.028213         0.209620
 C         2.005969         1.779223         0.004572
 C         3.094047         1.406085         1.016179
 O         3.457157         0.061948         0.517526
 C         2.776254         0.004927        -0.663388
 C         2.478403         1.308520        -1.402256
 O         1.174179         0.933055        -1.788524
 C         1.308567         0.415296        -0.413448
 C         0.156214        -0.324301         0.161069
 H         0.484920         3.011476         0.989798
 H         1.947099         3.872492         0.387938
 H         0.712313         3.218961        -0.729943
 H         3.981156         2.004500         1.091222
 H         2.530501         1.239029         1.993366
 H         2.973641        -0.996887        -1.176265
 H         3.119637         1.887219        -2.195904
 H         0.466862        -0.838228         1.071931
 H        -0.544726         0.477076         0.432022
 H        -0.341980        -1.030968        -0.654417
