19
Iteration:  3073
 C         1.374696         3.103270         0.237268
 C         1.933687         1.735695         0.022342
 C         3.022780         1.310337         1.020369
 O         3.674874         0.126759         0.416898
 C         2.732303        -0.015615        -0.625750
 C         2.507180         1.281572        -1.370459
 O         1.128092         0.883137        -1.764970
 C         1.194615         0.511884        -0.387999
 C         0.061975        -0.311464         0.088486
 H         0.740936         3.092447         1.101671
 H         2.196625         3.910531         0.339500
 H         0.696360         3.309659        -0.707194
 H         3.755194         2.022087         1.302061
 H         2.556375         0.983843         1.948303
 H         2.892402        -0.942952        -1.135218
 H         3.205383         1.749445        -2.086763
 H         0.267590        -0.477532         1.212573
 H        -0.942466         0.221049         0.005304
 H        -0.059601        -1.233103        -0.403903
