19
Iteration:  1528
 C         1.146045         3.024578         0.277416
 C         2.029150         1.754993         0.010551
 C         3.183679         1.392208         0.979296
 O         3.424315         0.054822         0.527375
 C         2.718736        -0.027082        -0.677060
 C         2.553130         1.352447        -1.431914
 O         1.198048         0.856379        -1.841918
 C         1.293593         0.434652        -0.440957
 C         0.107785        -0.217710         0.233937
 H         0.350934         2.868836         0.907560
 H         1.751486         3.817142         0.647160
 H         0.820746         3.528083        -0.729678
 H         4.139546         1.973244         0.849211
 H         2.987534         1.305162         2.020271
 H         2.885508        -1.115255        -1.047526
 H         3.139200         1.956608        -2.299353
 H         0.521842        -0.844384         1.056767
 H        -0.626260         0.560826         0.517767
 H        -0.236365        -1.020791        -0.485012
