19
Iteration:  1169
 C         1.281624         3.043253         0.191210
 C         2.012475         1.763361         0.020056
 C         2.915032         1.224203         1.071143
 O         3.669550         0.138709         0.412535
 C         2.779138        -0.034147        -0.716075
 C         2.512292         1.368321        -1.457102
 O         1.133163         0.830061        -1.804340
 C         1.309325         0.469505        -0.389583
 C         0.104244        -0.176280         0.301021
 H         0.725131         3.025924         1.102450
 H         1.930303         3.943223         0.165856
 H         0.470311         3.063139        -0.656515
 H         3.725294         1.749779         1.497814
 H         2.154447         0.769842         1.884058
 H         2.924895        -0.907256        -1.202946
 H         2.908954         2.009962        -2.350748
 H         0.533228        -0.735789         1.144319
 H        -0.567335         0.660731         0.722291
 H        -0.527879        -0.798138        -0.469987
