19
Iteration:  3432charge 0 multiplicity 1
 C         1.253666         3.105607         0.196163
 C         1.982764         1.774854         0.039065
 C         3.118410         1.306966         1.062912
 O         3.421547        -0.061975         0.533968
 C         2.680297        -0.015740        -0.729001
 C         2.518307         1.382760        -1.359461
 O         1.158812         0.964311        -1.834079
 C         1.295798         0.467257        -0.430538
 C         0.205429        -0.306967         0.162180
 H         0.850986         3.149247         1.260197
 H         1.942297         3.877432        -0.057729
 H         0.209679         3.263384        -0.339434
 H         3.990682         1.901190         0.762554
 H         2.998146         1.285804         2.117756
 H         3.056060        -0.851845        -1.409039
 H         3.128391         1.996563        -2.094051
 H         0.636094        -0.506801         1.210185
 H        -0.706971         0.321016         0.235188
 H         0.026788        -1.273556        -0.358981
