19
Iteration:  1537charge 0 multiplicity 1
 C         1.202530         3.060414         0.248213
 C         1.962994         1.732798        -0.015578
 C         3.143025         1.368134         1.014458
 O         3.506132         0.073743         0.472038
 C         2.799320        -0.010066        -0.707078
 C         2.512604         1.361574        -1.441107
 O         1.208329         0.795001        -1.786141
 C         1.282677         0.432644        -0.395239
 C         0.072715        -0.222190         0.229685
 H         0.254293         2.917044         0.822200
 H         1.867415         3.730144         0.743164
 H         0.833229         3.627094        -0.730293
 H         3.972327         1.997854         1.071196
 H         2.737156         1.181824         2.066976
 H         2.991161        -1.029314        -1.190840
 H         3.121946         1.965153        -2.137494
 H         0.238582        -0.776646         1.104046
 H        -0.573590         0.639815         0.547725
 H        -0.499943        -0.659446        -0.652995
