19
Iteration:  1988charge 0 multiplicity 1
 C         1.304498         3.126430         0.106239
 C         2.025877         1.787350         0.108747
 C         3.041919         1.286034         1.150720
 O         3.587421         0.144690         0.448706
 C         2.768855         0.030721        -0.734653
 C         2.517868         1.348185        -1.397356
 O         1.070473         0.864795        -1.775073
 C         1.268477         0.324896        -0.399829
 C         0.081895        -0.290576         0.154665
 H         0.882123         3.472685         1.038615
 H         2.101469         3.917914        -0.070985
 H         0.447194         3.135498        -0.723277
 H         3.917950         1.839266         1.571331
 H         2.435325         0.848594         2.019224
 H         3.010458        -0.838009        -1.325866
 H         3.186602         1.822803        -2.169961
 H         0.389912        -0.922429         1.143491
 H        -0.776924         0.415939         0.366744
 H        -0.153106        -1.018809        -0.668480
