19
Iteration:  4867charge 0 multiplicity 1
 C         1.295609         3.155783         0.313499
 C         2.100043         1.826681         0.049151
 C         3.016469         1.313007         1.110782
 O         3.537048         0.115091         0.481909
 C         2.678981        -0.107184        -0.719233
 C         2.507103         1.295611        -1.451859
 O         1.154217         0.981932        -1.844400
 C         1.317794         0.450939        -0.366440
 C         0.083752        -0.406094         0.098984
 H         0.804407         3.217885         1.311546
 H         2.058130         3.857604         0.405658
 H         0.604691         3.248237        -0.541007
 H         3.866829         2.097177         1.133348
 H         2.516762         1.078814         2.062126
 H         2.816761        -0.930295        -1.366905
 H         3.173472         1.712108        -2.365352
 H        -0.009755        -0.842721         1.191352
 H        -0.895012         0.070808        -0.101412
 H         0.089872        -1.221197        -0.527429
