19
Iteration:  4801
 C         1.166831         2.978921         0.246182
 C         1.988672         1.787304         0.014696
 C         3.037476         1.304258         1.049278
 O         3.568768         0.028355         0.493311
 C         2.704596        -0.133099        -0.762742
 C         2.601897         1.361494        -1.328107
 O         1.225234         1.020557        -1.850534
 C         1.278998         0.457659        -0.502016
 C         0.073803        -0.209995         0.234539
 H         0.578204         2.921271         1.217341
 H         1.585955         3.963017         0.321742
 H         0.482733         3.100552        -0.642101
 H         3.990625         1.919227         1.062452
 H         2.596563         1.145034         1.994719
 H         3.112600        -1.008177        -1.180210
 H         3.279290         2.016561        -2.057945
 H         0.446683        -0.703243         1.262363
 H        -0.733713         0.520239         0.474028
 H        -0.186198        -1.034478        -0.344412
