19
Iteration:   959
 C         1.200330         3.068722         0.351041
 C         2.062529         1.865955         0.054205
 C         3.288293         1.435884         0.869598
 O         3.411034        -0.000486         0.550202
 C         2.695595        -0.090468        -0.697996
 C         2.552324         1.348960        -1.371636
 O         1.178874         0.949339        -1.896312
 C         1.228320         0.452070        -0.428564
 C         0.056845        -0.383809         0.190899
 H         0.872244         2.839225         1.384498
 H         1.762739         3.986205         0.366955
 H         0.309295         3.172087        -0.237576
 H         4.087407         1.989233         0.453859
 H         3.341803         1.465854         2.025654
 H         2.931614        -0.987523        -1.226811
 H         3.104394         1.795425        -2.191663
 H         0.430685        -0.644589         1.275038
 H        -0.894059         0.212542         0.322363
 H        -0.317813        -1.196794        -0.428036
