19
Iteration:  1514charge 0 multiplicity 1
 C         1.188045         3.002677         0.269035
 C         2.046591         1.829151        -0.007872
 C         3.166061         1.438071         0.902988
 O         3.427744        -0.006306         0.594946
 C         2.673556        -0.103409        -0.652627
 C         2.525468         1.276246        -1.380888
 O         1.195956         0.985875        -1.889327
 C         1.255694         0.490227        -0.447249
 C         0.204963        -0.290283         0.229823
 H         0.425900         2.532258         1.030948
 H         1.637010         3.954858         0.566830
 H         0.497880         3.190026        -0.638055
 H         4.000360         1.969256         0.648718
 H         2.930939         1.587651         2.040762
 H         2.932640        -0.890945        -1.341673
 H         3.260644         1.685254        -1.996507
 H         0.572743        -0.481819         1.177120
 H        -0.684071         0.374932         0.481471
 H        -0.197852        -1.126354        -0.398953
