19
Iteration:  2943
 C         1.320128         3.111380         0.212057
 C         1.976686         1.747335         0.037121
 C         3.031796         1.313073         1.061999
 O         3.627049         0.167063         0.409858
 C         2.788612        -0.014890        -0.684114
 C         2.581600         1.242579        -1.379917
 O         1.131334         0.911171        -1.802919
 C         1.215626         0.357184        -0.453205
 C        -0.022767        -0.274935         0.213621
 H         0.807605         3.092548         1.104095
 H         2.142381         3.895184         0.366953
 H         0.638668         3.302483        -0.577408
 H         3.833884         2.095753         1.215767
 H         2.618485         0.879855         1.951764
 H         3.108252        -0.812423        -1.197157
 H         3.037727         2.035337        -1.911538
 H         0.262891        -0.646210         1.267149
 H        -0.869176         0.442862         0.087253
 H        -0.332150        -1.138468        -0.294135
