19
Iteration:  2684charge 0 multiplicity 1
 C         1.259555         3.119525         0.201405
 C         2.011667         1.750162         0.065371
 C         2.985126         1.245476         1.046114
 O         3.667394         0.090187         0.422664
 C         2.835338        -0.033707        -0.761539
 C         2.524019         1.309840        -1.373468
 O         1.152442         0.905525        -1.841029
 C         1.221911         0.418698        -0.421172
 C         0.037692        -0.221789         0.279105
 H         0.678996         3.348200         1.176739
 H         2.008475         3.922609         0.167956
 H         0.554764         3.198605        -0.480840
 H         3.688358         1.947000         1.433014
 H         2.512972         0.902063         2.022204
 H         2.852710        -0.908395        -1.519190
 H         2.976744         1.940377        -2.100021
 H         0.268073        -0.418798         1.416505
 H        -0.839260         0.439837         0.115658
 H        -0.233686        -1.183489        -0.154292
