19
Iteration:  1650charge 0 multiplicity 1
 C         1.178505         3.032668         0.263984
 C         2.018814         1.780903        -0.059923
 C         3.181170         1.398233         0.941345
 O         3.360392         0.014413         0.584344
 C         2.608259        -0.070514        -0.627425
 C         2.557823         1.361402        -1.372492
 O         1.249374         1.021027        -1.925529
 C         1.272032         0.450618        -0.442623
 C         0.188395        -0.345279         0.231818
 H         1.119922         2.931149         1.282746
 H         1.589726         4.007593        -0.088921
 H         0.119729         3.085303        -0.195126
 H         4.128352         1.909097         0.609300
 H         3.050947         1.521912         1.979839
 H         2.749027        -1.037490        -1.024836
 H         3.494355         1.762526        -2.007908
 H         0.591831        -0.538590         1.327465
 H        -0.822675         0.050288         0.282888
 H         0.236074        -1.370644        -0.107740
