19
Iteration:  3147charge 0 multiplicity 1
 C         1.166729         2.989753         0.247513
 C         2.153641         1.849233        -0.001267
 C         3.078755         1.360105         0.980054
 O         3.449508        -0.028293         0.522293
 C         2.686347        -0.016849        -0.682690
 C         2.531673         1.273381        -1.379062
 O         1.213100         1.030662        -1.880164
 C         1.291305         0.480086        -0.426607
 C         0.151493        -0.294193         0.221968
 H         0.699142         2.938367         1.238083
 H         1.662180         3.853441         0.207249
 H         0.309475         2.909624        -0.493183
 H         4.001572         1.937988         1.119894
 H         2.549737         1.326792         2.019802
 H         2.754672        -0.863469        -1.193904
 H         3.175089         1.677574        -2.173178
 H         0.613734        -0.578720         1.174004
 H        -0.684807         0.405013         0.381419
 H        -0.317013        -1.159530        -0.258213
