19
Iteration:  1107charge 0 multiplicity 1
 C         1.231558         3.033335         0.238450
 C         2.063081         1.836901         0.098431
 C         3.298751         1.449418         0.943532
 O         3.441667         0.075561         0.510370
 C         2.673099        -0.072488        -0.666922
 C         2.491925         1.285745        -1.350092
 O         1.129863         0.930318        -1.871834
 C         1.244726         0.497463        -0.307129
 C         0.083379        -0.371496         0.103322
 H         0.868027         3.152852         1.280522
 H         1.957046         3.907520         0.249791
 H         0.431956         3.052753        -0.448738
 H         4.189071         2.163280         0.703687
 H         3.075366         1.496547         1.965637
 H         2.866885        -1.101095        -1.281579
 H         3.118867         1.663144        -2.179366
 H         0.413375        -1.260605         0.704336
 H        -0.720806         0.083945         0.609777
 H        -0.306965        -0.973857        -0.712894
