19
Iteration:  1513
 C         1.187420         2.999651         0.266130
 C         2.047438         1.820019        -0.019911
 C         3.160178         1.446298         0.894098
 O         3.429665        -0.012864         0.600198
 C         2.672369        -0.103606        -0.657064
 C         2.525143         1.273290        -1.376130
 O         1.199240         0.999438        -1.887356
 C         1.246317         0.499470        -0.447061
 C         0.205834        -0.301506         0.233240
 H         0.427351         2.493346         1.064182
 H         1.637324         4.012391         0.523298
 H         0.501995         3.188414        -0.593224
 H         4.022916         1.958870         0.643564
 H         2.920051         1.584486         2.047798
 H         2.937827        -0.879347        -1.313317
 H         3.258780         1.637524        -1.943061
 H         0.588350        -0.460240         1.202420
 H        -0.663388         0.388195         0.457574
 H        -0.150781        -1.131686        -0.396030
