19
Iteration:  3674charge 0 multiplicity 1
 C         1.252935         3.017726         0.302334
 C         2.033034         1.757164        -0.001283
 C         3.086421         1.403752         0.960505
 O         3.446984         0.019893         0.473152
 C         2.725408        -0.091258        -0.693183
 C         2.513209         1.303118        -1.375738
 O         1.191241         1.053666        -1.828392
 C         1.305281         0.441032        -0.353439
 C         0.095422        -0.302857         0.137477
 H         0.541711         2.735244         1.154229
 H         1.855308         3.743076         0.652795
 H         0.710847         3.323841        -0.635456
 H         4.055137         1.971840         0.725238
 H         3.098428         1.409738         2.088213
 H         2.993598        -1.082692        -1.235607
 H         3.272910         1.935415        -1.866431
 H         0.146317        -0.725872         1.181470
 H        -0.742880         0.449624         0.179745
 H        -0.205805        -1.098562        -0.463730
