19
Iteration:  2563
 C         1.359430         3.079779         0.190758
 C         2.027434         1.820022         0.030809
 C         2.990384         1.240497         1.086507
 O         3.551403         0.111674         0.414407
 C         2.699203        -0.050855        -0.718268
 C         2.498587         1.353897        -1.403610
 O         1.206253         0.914585        -1.786464
 C         1.210134         0.446825        -0.401324
 C         0.100611        -0.293055         0.230779
 H         0.667023         3.125374         1.141501
 H         1.988351         4.018538        -0.107729
 H         0.670337         3.159505        -0.624376
 H         3.718919         2.021556         1.195327
 H         2.638012         1.000986         2.147282
 H         2.863046        -0.938406        -1.398570
 H         3.032844         1.993568        -2.075989
 H         0.681205        -0.846980         1.079041
 H        -0.820027         0.244394         0.491187
 H        -0.109346        -1.181522        -0.264722
