19
Iteration:  3848
 C         1.220252         3.082721         0.324975
 C         1.989109         1.776756         0.093540
 C         3.123391         1.305766         1.042429
 O         3.504303        -0.019415         0.455218
 C         2.738275        -0.012113        -0.682150
 C         2.533819         1.352023        -1.388201
 O         1.200169         0.931210        -1.884197
 C         1.268243         0.520664        -0.469194
 C         0.120591        -0.287549         0.168120
 H         0.625020         2.913639         1.279596
 H         1.851565         3.910272         0.312587
 H         0.469648         3.109776        -0.551917
 H         3.822964         2.083550         0.861653
 H         2.817746         1.297944         2.048266
 H         2.920695        -1.049413        -1.121691
 H         3.142509         1.724739        -2.236651
 H         0.282464        -0.589923         1.242554
 H        -0.786761         0.393272         0.187166
 H        -0.256994        -1.061979        -0.415300
