19
Iteration:   605charge 0 multiplicity 1
 C         1.278082         3.088146         0.240353
 C         2.017396         1.764705         0.113656
 C         3.043059         1.203916         1.093639
 O         3.695934         0.128280         0.295884
 C         2.749017        -0.052709        -0.749041
 C         2.507269         1.306551        -1.366371
 O         1.122795         0.961077        -1.750007
 C         1.235416         0.434961        -0.354363
 C         0.010846        -0.222422         0.158248
 H         0.697320         3.058791         1.180495
 H         2.003734         3.955784         0.235495
 H         0.550889         3.248806        -0.693247
 H         3.715946         1.994469         1.389407
 H         2.688609         0.680417         2.143317
 H         3.019896        -0.823359        -1.348362
 H         3.278464         1.609920        -2.136583
 H         0.007733        -0.304986         1.212124
 H        -0.897372         0.351592        -0.172487
 H        -0.171668        -1.294650        -0.360095
