19
Iteration:   994charge 0 multiplicity 1
 C         1.253912         2.990046         0.231563
 C         2.035759         1.689733         0.105384
 C         3.095641         1.307219         1.064369
 O         3.623968         0.148828         0.349824
 C         2.731035        -0.060543        -0.740506
 C         2.518580         1.309283        -1.360120
 O         1.092117         0.905723        -1.789754
 C         1.296934         0.396418        -0.367235
 C         0.044104        -0.144342         0.165312
 H         0.766897         3.037358         1.155257
 H         1.883383         3.910542         0.247009
 H         0.456781         3.112361        -0.603718
 H         3.893954         2.000682         1.219338
 H         2.675131         1.067075         2.103036
 H         2.903088        -0.885532        -1.255612
 H         2.988231         1.966443        -2.193338
 H         0.097978        -0.181454         1.257287
 H        -0.694220         0.668726        -0.141390
 H        -0.055612        -1.245878        -0.117983
