19
Iteration:  2100
 C         1.138418         2.932341         0.222987
 C         2.005240         1.790266         0.002052
 C         3.059244         1.315380         1.015880
 O         3.597784         0.083265         0.439971
 C         2.691958        -0.069494        -0.680148
 C         2.568598         1.349619        -1.370816
 O         1.237379         0.938956        -1.869380
 C         1.290675         0.411498        -0.449301
 C         0.067755        -0.165661         0.318988
 H         0.647007         2.840763         1.177863
 H         1.883111         3.861577         0.133373
 H         0.391817         3.085993        -0.564469
 H         3.942998         1.968973         1.112771
 H         2.557031         1.168703         2.056514
 H         3.139017        -0.899404        -1.256372
 H         3.194504         1.970683        -2.092195
 H         0.289905        -0.305372         1.444469
 H        -0.840279         0.529926         0.108513
 H        -0.343677        -1.165591        -0.151362
