19
Iteration:  1949charge 0 multiplicity 1
 C         1.170498         2.984054         0.268658
 C         1.998234         1.744542        -0.030739
 C         3.114079         1.424642         1.025613
 O         3.426855         0.047576         0.513659
 C         2.714974        -0.016134        -0.718065
 C         2.581170         1.275626        -1.387088
 O         1.236055         0.972258        -1.931778
 C         1.297343         0.453547        -0.436763
 C         0.129952        -0.295711         0.292189
 H         0.954552         3.044489         1.371875
 H         1.794762         3.904916         0.071902
 H         0.299689         3.063399        -0.292168
 H         4.039339         2.037114         0.987337
 H         2.704529         1.441018         2.031908
 H         2.875421        -1.017899        -1.276936
 H         3.239195         1.885991        -2.053005
 H         0.405016        -0.559983         1.239270
 H        -0.657302         0.432668         0.424889
 H        -0.256381        -1.216402        -0.168965
