19
Iteration:  3715
 C         1.159328         2.974027         0.306480
 C         2.030017         1.785639         0.031059
 C         3.156398         1.314270         1.034070
 O         3.473473        -0.025891         0.434039
 C         2.762122        -0.022690        -0.694403
 C         2.557378         1.365014        -1.402687
 O         1.238574         0.956820        -1.904414
 C         1.300074         0.401425        -0.393063
 C         0.051276        -0.143132         0.229677
 H         0.787192         2.871756         1.379487
 H         1.563652         3.987268         0.151842
 H         0.138774         2.982486        -0.258119
 H         3.997219         1.984044         1.114100
 H         2.631187         1.180533         1.959337
 H         2.963640        -0.887859        -1.316743
 H         3.083018         2.012006        -2.078544
 H         0.272407        -0.709309         1.197433
 H        -0.705887         0.642502         0.313553
 H        -0.235609        -0.876020        -0.456537
