19
Iteration:   447charge 0 multiplicity 1
 C         1.260506         3.011557         0.180495
 C         1.945888         1.677645         0.054677
 C         2.938266         1.209277         1.085925
 O         3.728321         0.163855         0.330460
 C         2.759683        -0.063512        -0.742750
 C         2.540658         1.354377        -1.329534
 O         1.177530         1.002721        -1.814552
 C         1.285795         0.404981        -0.398457
 C         0.025727        -0.188029         0.256168
 H         0.781438         3.038892         1.219664
 H         1.979148         3.905189         0.092194
 H         0.477672         3.206990        -0.509867
 H         3.720156         1.832090         1.416334
 H         2.377194         0.679922         1.974459
 H         2.958095        -1.058599        -1.330002
 H         3.208443         1.993243        -1.873971
 H         0.284902        -1.049555         0.982156
 H        -0.545446         0.645705         0.636126
 H        -0.723307        -0.550395        -0.328641
