19
Iteration:  3055charge 0 multiplicity 1
 C         1.256573         3.147364         0.217297
 C         2.096894         1.873929         0.057614
 C         3.045403         1.330239         1.064949
 O         3.547302         0.102848         0.425115
 C         2.697559        -0.114589        -0.704186
 C         2.483378         1.297810        -1.409510
 O         1.158357         0.866214        -1.812171
 C         1.338998         0.405415        -0.339527
 C         0.074524        -0.274911         0.169268
 H         0.616772         3.158664         1.114505
 H         1.966628         3.961215         0.489157
 H         0.632951         3.445648        -0.532695
 H         3.976745         2.012560         1.225318
 H         2.619201         1.045308         2.050450
 H         2.845324        -1.126533        -1.326495
 H         3.081719         1.911370        -2.099425
 H         0.114243        -0.866461         1.088722
 H        -0.762276         0.361176        -0.104423
 H        -0.217115        -1.210065        -0.563753
