19
Iteration:  3363
 C         1.262215         3.065833         0.239476
 C         1.988760         1.751640         0.031936
 C         3.021040         1.289092         1.076635
 O         3.609434         0.098061         0.380066
 C         2.792362        -0.046904        -0.747823
 C         2.456871         1.341309        -1.336058
 O         1.235739         0.862523        -1.768958
 C         1.323851         0.366901        -0.404448
 C        -0.035832        -0.146508         0.181555
 H         0.537382         2.804755         1.051195
 H         1.996587         3.842996         0.512968
 H         0.627698         3.457343        -0.601932
 H         3.857045         2.034046         1.097231
 H         2.539569         1.155422         2.047529
 H         2.906255        -0.835077        -1.438164
 H         3.227999         1.798594        -1.970737
 H         0.177025        -0.758490         1.001766
 H        -0.552394         0.758054         0.459091
 H        -0.464219        -0.907133        -0.614096
