19
Iteration:  4679
 C         1.305863         3.077170         0.220430
 C         2.030037         1.724531         0.069916
 C         3.000950         1.296913         1.102250
 O         3.555426         0.089553         0.428390
 C         2.719003        -0.023522        -0.712812
 C         2.503621         1.332029        -1.387899
 O         1.167068         0.999521        -1.806794
 C         1.271252         0.470522        -0.344364
 C         0.110537        -0.374070         0.087975
 H         0.618426         3.255527         1.086329
 H         2.035120         3.987618         0.302550
 H         0.637654         3.207499        -0.581436
 H         3.899513         1.911039         1.370259
 H         2.450729         1.055141         1.985859
 H         2.903880        -1.034941        -1.243194
 H         3.272627         1.768504        -2.006101
 H         0.176395        -0.525957         1.147087
 H        -0.718660         0.352641        -0.004645
 H        -0.048300        -1.262546        -0.609503
