19
Iteration:  3688
 C         1.160853         2.989150         0.303739
 C         1.944073         1.716568         0.090978
 C         3.262299         1.357441         0.921192
 O         3.463240        -0.013807         0.532042
 C         2.699306        -0.053851        -0.694635
 C         2.596791         1.365225        -1.315988
 O         1.199883         0.981834        -1.851301
 C         1.239225         0.426005        -0.499196
 C         0.091789        -0.184713         0.168193
 H         0.504971         2.914156         1.155642
 H         1.906207         3.825877         0.443202
 H         0.509313         3.300636        -0.419403
 H         4.064014         2.099976         0.663193
 H         2.893166         1.348735         1.953054
 H         2.892613        -0.950615        -1.349504
 H         3.189901         1.961847        -2.072547
 H         0.502718        -0.568908         1.069768
 H        -0.779270         0.484884         0.301419
 H        -0.146244        -1.118249        -0.507023
