19
Iteration:  2848
 C         1.154514         3.090483         0.185111
 C         1.992122         1.744331         0.009330
 C         3.040005         1.379399         1.008518
 O         3.533407        -0.015258         0.437596
 C         2.763348        -0.066494        -0.737553
 C         2.575399         1.296456        -1.322746
 O         1.214991         0.943481        -1.807337
 C         1.238727         0.477783        -0.454161
 C         0.145871        -0.234192         0.282852
 H         0.682802         3.113445         1.278261
 H         1.803573         3.985873         0.154429
 H         0.353557         3.095096        -0.475721
 H         3.897674         2.046038         1.031147
 H         2.672527         1.121357         2.027505
 H         2.931254        -0.793574        -1.568398
 H         3.345538         1.775054        -1.895817
 H         0.537867        -0.554053         1.257028
 H        -0.702806         0.447415         0.410309
 H        -0.333060        -1.163743        -0.144699
