19
Iteration:  3300
 C         1.266564         3.020568         0.242225
 C         2.069264         1.802357        -0.000149
 C         3.037129         1.321273         1.029127
 O         3.428028         0.005972         0.524768
 C         2.768141        -0.041180        -0.717648
 C         2.562137         1.349616        -1.408476
 O         1.193090         1.057470        -1.844725
 C         1.248140         0.448715        -0.452429
 C         0.109951        -0.304938         0.235547
 H         0.813823         2.949412         1.299369
 H         1.688608         3.964535         0.096200
 H         0.441512         2.940226        -0.602828
 H         3.983578         1.857188         0.907712
 H         2.841620         1.301915         2.107597
 H         2.889096        -0.971276        -1.266737
 H         3.266006         1.738776        -2.205021
 H         0.314803        -0.623854         1.274476
 H        -0.883804         0.197247         0.387607
 H         0.050642        -1.339045        -0.200311
