19
Iteration:  1251charge 0 multiplicity 1
 C         1.199683         3.116711         0.287511
 C         2.028991         1.802037         0.096345
 C         3.200950         1.435533         0.937521
 O         3.498684         0.058865         0.469463
 C         2.725876        -0.103379        -0.674206
 C         2.496893         1.260897        -1.446257
 O         1.174369         0.914992        -1.785643
 C         1.271330         0.482611        -0.327808
 C         0.067367        -0.324239         0.100527
 H         0.687054         3.155783         1.290051
 H         1.887496         3.943666         0.316394
 H         0.507303         3.213501        -0.497206
 H         4.104011         2.114790         0.877403
 H         2.982435         1.327065         1.996753
 H         2.931598        -1.142901        -1.229672
 H         3.011600         1.597290        -2.278158
 H        -0.032950        -0.459797         1.219801
 H        -0.854914         0.137297        -0.283660
 H         0.194824        -1.328479        -0.215022
