19
Iteration:  2716
 C         1.281483         3.042593         0.203108
 C         2.069760         1.784018         0.088964
 C         3.109064         1.304448         1.043026
 O         3.485307         0.097446         0.486182
 C         2.681294        -0.018058        -0.716704
 C         2.543076         1.317446        -1.420818
 O         1.160014         0.942240        -1.819202
 C         1.230526         0.478396        -0.462897
 C         0.122736        -0.347852         0.214541
 H         0.817833         3.125324         1.264088
 H         1.945980         3.972582         0.163953
 H         0.566284         3.124228        -0.512229
 H         3.926390         1.998887         1.115257
 H         2.549836         1.135125         1.976473
 H         2.839871        -0.948240        -1.321425
 H         2.981297         1.839773        -2.223452
 H         0.460214        -0.277902         1.319710
 H        -0.867055         0.169867         0.207312
 H         0.079732        -1.325360        -0.234794
