19
Iteration:   230charge 0 multiplicity 1
 C         1.237387         3.078232         0.196035
 C         2.003647         1.778384         0.019724
 C         3.145118         1.393388         0.953849
 O         3.414056         0.013398         0.569079
 C         2.712137        -0.021412        -0.675789
 C         2.474615         1.367170        -1.386676
 O         1.184696         0.990948        -1.799198
 C         1.300660         0.400204        -0.406015
 C         0.152533        -0.414787         0.154211
 H         0.358860         3.138911         0.862622
 H         2.024716         3.766755         0.674125
 H         1.035558         3.499263        -0.734850
 H         4.097273         2.017635         0.729135
 H         2.976041         1.398501         2.071486
 H         2.815612        -0.889412        -1.297145
 H         3.044853         1.979659        -2.043419
 H         0.450911        -0.908029         1.114755
 H        -0.604860         0.320020         0.445238
 H        -0.018242        -1.188638        -0.581724
