19
Iteration:  1731
 C         1.227562         3.035145         0.128328
 C         1.965476         1.683143         0.050217
 C         3.016543         1.272857         1.114945
 O         3.759305         0.221186         0.342316
 C         2.826449        -0.070576        -0.662666
 C         2.516366         1.232807        -1.351819
 O         1.233131         0.887268        -1.797203
 C         1.159024         0.479064        -0.422536
 C        -0.079478        -0.183985         0.239727
 H         0.339945         3.104674         0.906608
 H         1.905775         3.691119         0.642317
 H         0.889412         3.429873        -0.746122
 H         3.760350         2.125146         1.287634
 H         2.696722         0.828693         2.053177
 H         3.288854        -1.009857        -1.265354
 H         3.019840         1.874599        -2.089363
 H         0.125479        -0.461368         1.273524
 H        -0.933916         0.566526         0.298557
 H        -0.464054        -1.085711        -0.423022
