19
Iteration:  3951charge 0 multiplicity 1
 C         1.290846         3.019169         0.281254
 C         1.917606         1.744320         0.040106
 C         3.157480         1.312737         0.988657
 O         3.432482         0.002984         0.594930
 C         2.733911        -0.005324        -0.657950
 C         2.518465         1.361337        -1.394880
 O         1.135864         1.012590        -1.842552
 C         1.268024         0.467139        -0.501957
 C         0.164757        -0.332758         0.147132
 H         0.386739         3.108756         1.112085
 H         2.169046         3.819358         0.402731
 H         0.839321         3.351174        -0.638651
 H         3.948575         1.957831         0.613841
 H         3.300003         1.514171         2.056526
 H         3.100149        -0.805997        -1.304790
 H         3.092757         1.976266        -2.145889
 H         0.297010        -0.786120         1.096605
 H        -0.691116         0.280124         0.251584
 H        -0.076934        -1.285624        -0.486337
