19
Iteration:  1481
 C         1.240128         3.049984         0.196532
 C         2.046645         1.778919         0.066965
 C         3.108441         1.355547         1.056852
 O         3.405235         0.047714         0.497586
 C         2.687107        -0.065599        -0.715609
 C         2.518580         1.347944        -1.451020
 O         1.204843         0.948177        -1.836718
 C         1.279687         0.484464        -0.439310
 C         0.176782        -0.318779         0.246912
 H         0.986581         3.299534         1.260370
 H         1.625554         3.946089        -0.233748
 H         0.295103         2.851476        -0.365538
 H         3.973369         1.915471         1.017939
 H         2.855658         1.192912         2.169514
 H         2.938373        -0.975167        -1.194837
 H         3.149613         1.804209        -2.135850
 H         0.372361        -0.291003         1.281937
 H        -0.716612         0.292210        -0.027423
 H         0.148267        -1.378151        -0.064659
