19
Iteration:  2688charge 0 multiplicity 1
 C         1.265151         3.143786         0.199868
 C         1.978459         1.755638         0.089771
 C         2.961720         1.268107         1.048196
 O         3.681154         0.061052         0.403384
 C         2.785621        -0.084350        -0.778089
 C         2.549522         1.306151        -1.341455
 O         1.143737         0.908918        -1.866373
 C         1.264719         0.437932        -0.371483
 C         0.073980        -0.237542         0.292050
 H         0.786259         3.306702         1.144853
 H         1.955451         3.945026         0.216938
 H         0.362931         3.278826        -0.589799
 H         3.661577         2.094132         1.319660
 H         2.368975         0.912747         1.913834
 H         2.826987        -0.953283        -1.524441
 H         3.048297         2.062666        -2.048728
 H         0.202449        -0.287288         1.302946
 H        -0.756946         0.405609         0.126992
 H        -0.114090        -1.186589        -0.304070
