19
Iteration:  1380charge 0 multiplicity 1
 C         1.158321         3.012192         0.215578
 C         2.057988         1.794437         0.007515
 C         3.254046         1.376662         0.938577
 O         3.401350         0.024299         0.589941
 C         2.721041        -0.001314        -0.682649
 C         2.563876         1.361212        -1.398747
 O         1.135177         0.875760        -1.843347
 C         1.293829         0.422635        -0.446403
 C         0.157643        -0.242708         0.224526
 H         0.256140         2.795156         0.934775
 H         1.705066         3.816605         0.819642
 H         0.631717         3.284845        -0.638003
 H         4.115793         1.886415         0.625939
 H         3.117319         1.484647         2.096283
 H         2.710087        -0.996613        -1.271463
 H         3.082257         2.029993        -2.029565
 H         0.396421        -0.804431         1.226858
 H        -0.673164         0.491842         0.333410
 H        -0.325821        -0.889732        -0.524463
