19
Iteration:  1786
 C         1.190853         3.030426         0.263084
 C         2.048614         1.844396        -0.016764
 C         3.156026         1.368707         0.902412
 O         3.365033        -0.015452         0.630286
 C         2.691792        -0.036152        -0.607767
 C         2.575474         1.380832        -1.414296
 O         1.188803         0.941415        -1.903299
 C         1.262078         0.469451        -0.472640
 C         0.210094        -0.332980         0.237116
 H         0.863350         3.055190         1.362036
 H         1.514578         4.001964         0.024143
 H         0.378362         2.879269        -0.324304
 H         4.074153         2.011748         0.728440
 H         2.816875         1.510128         1.864568
 H         2.860146        -1.021804        -1.251976
 H         3.218862         1.850385        -2.157630
 H         0.587866        -0.817516         1.107025
 H        -0.553887         0.418108         0.534300
 H        -0.163528        -1.218576        -0.392204
