19
Iteration:  3448
 C         1.320871         3.071024         0.241913
 C         2.004706         1.745984         0.079989
 C         3.056428         1.315833         0.988324
 O         3.452022         0.008120         0.516512
 C         2.805847        -0.021664        -0.723360
 C         2.493810         1.400597        -1.394339
 O         1.166249         1.016160        -1.865120
 C         1.212632         0.417562        -0.502975
 C         0.163304        -0.334259         0.270257
 H         0.919991         3.414585         1.160192
 H         2.050667         3.937571        -0.022257
 H         0.623363         2.980601        -0.492091
 H         3.919836         1.940944         1.212379
 H         2.494491         1.136164         1.970814
 H         2.924320        -0.990446        -1.168895
 H         3.161364         1.951926        -2.020864
 H         0.395726        -0.548058         1.282102
 H        -0.846062         0.061688         0.231523
 H        -0.148179        -1.232323        -0.276770
