19
Iteration:  4238charge 0 multiplicity 1
 C         1.131407         2.971621         0.392903
 C         2.099972         1.761388        -0.003358
 C         3.141817         1.400020         0.944044
 O         3.465489         0.064697         0.576741
 C         2.661522        -0.067715        -0.762720
 C         2.584085         1.306628        -1.351847
 O         1.206218         0.946292        -1.873198
 C         1.337748         0.445064        -0.470085
 C         0.062148        -0.212065         0.125286
 H         0.623169         2.621996         1.228741
 H         1.783989         3.791796         0.728103
 H         0.407347         3.166174        -0.441804
 H         4.016809         2.120760         0.943224
 H         2.769946         1.297922         1.997719
 H         3.011830        -0.893947        -1.342977
 H         3.154263         1.769723        -2.087755
 H         0.414246        -0.661064         1.145449
 H        -0.741030         0.572258         0.308611
 H        -0.329749        -1.039551        -0.411147
