19
Iteration:   629
 C         1.282265         2.992689         0.340672
 C         2.028287         1.734852         0.058250
 C         3.223576         1.384803         0.968710
 O         3.530953         0.005136         0.483664
 C         2.761664        -0.076930        -0.703655
 C         2.429853         1.484608        -1.411207
 O         1.100091         0.865911        -1.785370
 C         1.289610         0.427027        -0.401220
 C         0.045777        -0.208365         0.079082
 H         0.756866         2.930053         1.365276
 H         2.005877         3.782375         0.365124
 H         0.561236         3.253998        -0.465501
 H         4.107189         2.082196         1.002504
 H         2.820805         1.329993         2.087767
 H         2.990031        -1.034641        -1.200978
 H         3.009465         2.091143        -2.103601
 H         0.042577        -0.536227         1.151126
 H        -0.772687         0.520347        -0.103601
 H        -0.269523        -1.045496        -0.618798
