19
Iteration:   778charge 0 multiplicity 1
 C         1.332192         3.001224         0.378206
 C         2.030620         1.765276        -0.013711
 C         3.152232         1.387365         0.987248
 O         3.456027         0.008038         0.537909
 C         2.753962        -0.050974        -0.699827
 C         2.434866         1.388393        -1.454171
 O         1.088964         0.923105        -1.774311
 C         1.293015         0.494836        -0.447920
 C         0.123140        -0.277880         0.107760
 H         0.975841         2.848593         1.312404
 H         2.072345         3.837305         0.463989
 H         0.464254         3.265786        -0.353590
 H         4.018004         2.109538         0.760168
 H         2.949806         1.301285         2.023953
 H         2.875635        -0.926903        -1.232572
 H         3.110517         1.907316        -2.228991
 H         0.095648        -0.431060         1.135545
 H        -0.776844         0.292192        -0.291396
 H         0.129583        -1.421470        -0.276336
