19
Iteration:   146
 C         1.172523         2.974817         0.256248
 C         1.952334         1.702956        -0.023678
 C         3.045281         1.295882         1.019180
 O         3.564652         0.088026         0.483761
 C         2.791066        -0.008952        -0.643340
 C         2.579162         1.358763        -1.375127
 O         1.223161         0.945708        -1.913831
 C         1.276174         0.420250        -0.484639
 C         0.070486        -0.195467         0.295771
 H         1.143394         3.170264         1.316315
 H         1.618254         3.862848        -0.236895
 H         0.132311         2.923145        -0.046185
 H         3.833365         2.012743         1.005144
 H         2.703457         1.081711         2.032422
 H         2.947198        -1.019066        -1.196598
 H         3.270952         2.108324        -1.947508
 H         0.303322        -0.259108         1.285224
 H        -0.813103         0.352698         0.072999
 H        -0.302289        -1.172969        -0.123879
