19
Iteration:  3383
 C         1.252206         2.987641         0.289981
 C         1.978055         1.705400         0.028233
 C         3.154054         1.345345         1.022492
 O         3.598301         0.127662         0.506527
 C         2.754236        -0.091828        -0.690668
 C         2.575921         1.291315        -1.390279
 O         1.093497         0.970450        -1.827269
 C         1.277236         0.453993        -0.464524
 C         0.027988        -0.209672         0.146982
 H         0.552492         2.965757         1.101572
 H         2.002947         3.857080         0.335118
 H         0.623100         3.162650        -0.516933
 H         3.944112         2.148832         1.185036
 H         2.663506         1.010900         2.028811
 H         2.782620        -1.065807        -1.109310
 H         3.103315         1.877218        -2.112903
 H         0.289715        -0.760886         1.031035
 H        -0.734556         0.555528         0.373342
 H        -0.447240        -0.925442        -0.672317
