19
Iteration:  4921
 C         1.177972         3.027360         0.260008
 C         2.021133         1.772737         0.062281
 C         3.133292         1.305800         1.052279
 O         3.352562         0.007519         0.467576
 C         2.821984         0.017058        -0.692592
 C         2.508786         1.359083        -1.393056
 O         1.200738         0.974460        -1.849253
 C         1.386685         0.425478        -0.462894
 C         0.110277        -0.275608         0.184624
 H         0.857778         2.976402         1.310683
 H         1.837399         3.860161         0.151205
 H         0.431667         3.112520        -0.517824
 H         4.009288         2.008813         1.031979
 H         2.818066         1.020703         2.092467
 H         2.946694        -0.779117        -1.374755
 H         3.110389         1.951608        -2.242120
 H         0.241512        -0.757083         1.255933
 H        -0.604937         0.534633         0.381038
 H        -0.342811        -1.043393        -0.293380
