19
Iteration:  2649charge 0 multiplicity 1
 C         1.207966         2.974850         0.311196
 C         2.001785         1.752885         0.005143
 C         3.056322         1.349929         0.992166
 O         3.615156         0.105512         0.454099
 C         2.756745        -0.053866        -0.730617
 C         2.501862         1.264978        -1.372613
 O         1.163226         0.925663        -1.778601
 C         1.292235         0.412735        -0.428723
 C         0.092841        -0.155201         0.190365
 H         0.580924         3.006087         1.228255
 H         1.918212         3.882177         0.156242
 H         0.728510         3.128398        -0.603377
 H         3.924511         2.050175         0.931129
 H         2.642000         1.047260         1.994858
 H         2.716923        -0.991962        -1.225500
 H         3.108095         1.799648        -2.070676
 H         0.070498        -0.597219         1.304811
 H        -0.701218         0.688913         0.205182
 H        -0.272746        -0.889158        -0.512147
