19
Iteration:  2643charge 0 multiplicity 1
 C         1.174814         3.025674         0.333770
 C         1.970987         1.793205         0.019140
 C         3.104109         1.331120         0.939686
 O         3.608384         0.054198         0.451035
 C         2.772508        -0.053502        -0.683566
 C         2.526106         1.253286        -1.410712
 O         1.189303         0.939024        -1.759944
 C         1.278072         0.444478        -0.421973
 C         0.052861        -0.183319         0.189720
 H         0.512615         3.048188         1.221661
 H         1.764175         3.888224         0.323111
 H         0.540325         3.086596        -0.684477
 H         3.904491         2.054203         0.874492
 H         2.663382         1.200115         1.931460
 H         2.926335        -1.086953        -1.188529
 H         3.215211         1.648019        -2.203172
 H         0.227141        -0.524288         1.144112
 H        -0.675395         0.567048         0.309893
 H        -0.307988        -0.924561        -0.557097
