19
Iteration:  1293charge 0 multiplicity 1
 C         1.381976         3.178221         0.205839
 C         1.944875         1.705807         0.035651
 C         2.949051         1.257109         1.124449
 O         3.642095         0.239776         0.377728
 C         2.848047        -0.002114        -0.732793
 C         2.422647         1.225650        -1.413758
 O         1.167847         0.874834        -1.779974
 C         1.263411         0.322838        -0.398540
 C        -0.017200        -0.246375         0.206753
 H         1.154946         3.483863         1.270313
 H         2.201508         3.890892        -0.063014
 H         0.528290         3.298397        -0.338574
 H         3.731442         1.947338         1.308025
 H         2.577982         0.844744         2.165848
 H         3.271317        -0.922391        -1.351754
 H         2.963395         1.849223        -2.056155
 H         0.181282        -0.646984         1.285104
 H        -0.833417         0.488439         0.042723
 H        -0.168438        -1.180328        -0.342782
