19
Iteration:  3433
 C         1.257582         3.103185         0.200852
 C         1.974279         1.774313         0.037714
 C         3.119765         1.310417         1.066667
 O         3.420944        -0.064483         0.532472
 C         2.688168        -0.016961        -0.720165
 C         2.516689         1.379712        -1.360816
 O         1.158263         0.969164        -1.838394
 C         1.295519         0.467274        -0.436916
 C         0.201269        -0.310234         0.163701
 H         0.862164         3.148545         1.242376
 H         1.943157         3.898201        -0.086415
 H         0.255803         3.246186        -0.348753
 H         3.961287         1.908177         0.781856
 H         3.004933         1.265323         2.106400
 H         3.061995        -0.806485        -1.425895
 H         3.078261         1.975473        -2.103659
 H         0.630455        -0.519873         1.217844
 H        -0.697566         0.329461         0.243309
 H         0.066649        -1.236018        -0.323974
