19
Iteration:   292charge 0 multiplicity 1
 C         1.177849         2.938891         0.255878
 C         1.932889         1.682687        -0.051142
 C         2.988452         1.250352         1.023081
 O         3.622086         0.089962         0.436552
 C         2.793074        -0.001808        -0.722360
 C         2.599619         1.345079        -1.343229
 O         1.232870         0.981922        -1.880145
 C         1.250669         0.414518        -0.444881
 C         0.054170        -0.136013         0.293052
 H         0.999297         3.142480         1.352758
 H         1.887702         3.669532        -0.060598
 H         0.191585         3.130729        -0.317022
 H         3.706766         1.995482         1.192467
 H         2.480807         0.968474         2.030930
 H         2.971722        -0.865743        -1.287710
 H         3.259374         1.965978        -1.947557
 H         0.457400        -0.604991         1.347626
 H        -0.674626         0.653267         0.672110
 H        -0.432895        -0.950255        -0.201965
