19
Iteration:  4866charge 0 multiplicity 1
 C         1.295517         3.156389         0.304628
 C         2.099095         1.834731         0.049233
 C         3.008533         1.312782         1.105843
 O         3.543698         0.111766         0.482461
 C         2.687895        -0.105918        -0.710144
 C         2.505605         1.302846        -1.457049
 O         1.148091         0.980583        -1.839447
 C         1.312586         0.441908        -0.364218
 C         0.084825        -0.403677         0.099231
 H         0.796154         3.202370         1.290425
 H         2.076389         3.846091         0.419824
 H         0.619255         3.246787        -0.508185
 H         3.886253         2.059733         1.161142
 H         2.526153         1.042688         2.084580
 H         2.827164        -0.902803        -1.383005
 H         3.163591         1.688686        -2.367448
 H        -0.006586        -0.826564         1.184179
 H        -0.879717         0.082359        -0.128738
 H         0.077062        -1.199685        -0.550555
