19
Iteration:  2456charge 0 multiplicity 1
 C         1.222217         2.952221         0.287035
 C         2.050085         1.796034        -0.009437
 C         3.139165         1.408595         0.915579
 O         3.492324         0.038085         0.568341
 C         2.718014        -0.027659        -0.713351
 C         2.535829         1.294703        -1.397043
 O         1.169308         0.941023        -1.829603
 C         1.284826         0.461467        -0.413867
 C         0.098656        -0.213340         0.193981
 H         0.629261         2.622791         1.215546
 H         1.735796         3.803946         0.539364
 H         0.349901         2.991788        -0.385847
 H         4.035139         2.076033         0.790257
 H         3.079566         1.213320         1.999548
 H         2.812946        -1.037619        -1.366657
 H         3.084390         1.805552        -2.193451
 H         0.167060        -0.583907         1.277331
 H        -0.686703         0.515730         0.222316
 H        -0.295206        -0.954826        -0.453936
