19
Iteration:  1282
 C         1.398593         3.098288         0.234328
 C         1.935385         1.734071         0.118086
 C         3.030067         1.357602         1.047279
 O         3.689473         0.224666         0.383928
 C         2.779367        -0.071400        -0.692920
 C         2.534498         1.330078        -1.368988
 O         1.113156         0.852092        -1.805901
 C         1.213375         0.373164        -0.421887
 C        -0.038413        -0.319304         0.154748
 H         1.125280         3.362364         1.290471
 H         2.209562         3.751941        -0.171011
 H         0.606399         3.308102        -0.385352
 H         3.681530         2.140680         1.370712
 H         2.448783         0.946127         1.980425
 H         3.069952        -1.062184        -1.280175
 H         3.096319         1.796922        -2.142798
 H         0.053045        -0.353459         1.328520
 H        -0.948817         0.306493         0.029056
 H        -0.333413        -1.274183        -0.299915
