19
Iteration:  1162
 C         1.322981         2.998665         0.156932
 C         2.019514         1.765529         0.025792
 C         2.944512         1.178138         1.126621
 O         3.645818         0.165281         0.418156
 C         2.785188         0.046831        -0.715259
 C         2.477277         1.385013        -1.479283
 O         1.114735         0.816624        -1.810850
 C         1.306914         0.470986        -0.369093
 C         0.090996        -0.202763         0.271373
 H         0.824622         2.989312         1.158876
 H         1.968095         3.912172        -0.008519
 H         0.607597         3.120462        -0.572235
 H         3.581311         2.048114         1.507977
 H         2.476822         0.774930         2.037969
 H         2.915151        -1.038679        -1.286377
 H         2.958357         1.863938        -2.321953
 H         0.266482        -0.868226         1.207247
 H        -0.493339         0.605764         0.681055
 H        -0.554744        -0.646398        -0.510581
