19
Iteration:  4036charge 0 multiplicity 1
 C         1.256480         3.039034         0.221948
 C         1.993793         1.678580         0.094540
 C         2.964898         1.293028         1.118564
 O         3.607427         0.107483         0.396990
 C         2.810926         0.029108        -0.846274
 C         2.594037         1.317907        -1.324170
 O         1.196012         0.932557        -1.832207
 C         1.264343         0.365289        -0.436587
 C         0.020462        -0.213025         0.264085
 H         0.799575         3.402215         1.209861
 H         1.857524         3.807049        -0.056189
 H         0.510939         3.129983        -0.493004
 H         3.761461         2.007347         1.361526
 H         2.504301         0.698455         1.887789
 H         2.936382        -0.857940        -1.379194
 H         3.178120         2.078116        -2.009996
 H         0.196125        -0.529380         1.250716
 H        -0.680988         0.635820         0.303946
 H        -0.688077        -0.954463        -0.400992
