19
Iteration:  2161charge 0 multiplicity 1
 C         1.303789         3.092911         0.213769
 C         2.009605         1.736702         0.058058
 C         3.026589         1.445375         1.038241
 O         3.570324         0.070345         0.458532
 C         2.801745        -0.067147        -0.713878
 C         2.502039         1.281949        -1.374655
 O         1.145315         0.901005        -1.760967
 C         1.244082         0.439855        -0.407237
 C         0.044094        -0.319195         0.156759
 H         0.832952         3.237047         1.239244
 H         2.061874         3.832915         0.171591
 H         0.641997         3.478845        -0.698592
 H         3.919268         2.132148         1.065345
 H         2.558936         1.291476         1.960487
 H         3.099084        -0.936769        -1.478381
 H         2.946213         2.013215        -2.109636
 H         0.347303        -0.824719         1.102597
 H        -0.872914         0.226977         0.219249
 H        -0.087451        -1.141482        -0.462692
