19
Iteration:  4626charge 0 multiplicity 1
 C         1.160209         2.958771         0.322235
 C         2.032754         1.737118         0.010339
 C         3.074359         1.313447         1.102758
 O         3.389209         0.009939         0.476362
 C         2.718404        -0.054535        -0.695364
 C         2.586998         1.458216        -1.451844
 O         1.218129         0.953783        -1.874540
 C         1.347740         0.443384        -0.466273
 C         0.155771        -0.200576         0.184654
 H         0.638418         2.810605         1.333811
 H         1.658930         3.971116         0.345767
 H         0.279492         3.168100        -0.274760
 H         4.067694         1.795188         1.027891
 H         2.892626         1.331116         2.142634
 H         3.047021        -1.055640        -1.174681
 H         3.247070         1.817249        -2.280195
 H         0.439726        -0.453183         1.223454
 H        -0.686277         0.504124         0.229095
 H        -0.137711        -0.998658        -0.466468
