19
Iteration:  2742
 C         1.223155         3.055859         0.219449
 C         2.014878         1.780067        -0.013629
 C         3.146640         1.383409         0.917380
 O         3.433956        -0.007991         0.561197
 C         2.736938        -0.046342        -0.610821
 C         2.500092         1.341204        -1.399712
 O         1.122619         1.041646        -1.799792
 C         1.327744         0.389547        -0.402085
 C         0.162709        -0.344959         0.180515
 H         0.828126         2.938383         1.200911
 H         1.937335         3.806889         0.272399
 H         0.494660         3.489449        -0.547705
 H         4.079347         1.962914         0.765692
 H         2.828987         1.454511         1.971351
 H         2.873642        -0.970907        -1.308086
 H         3.131115         1.850450        -2.228042
 H         0.337052        -0.638876         1.166372
 H        -0.670927         0.324394         0.146232
 H        -0.014623        -1.280910        -0.490490
