19
Iteration:  2149
 C         1.362011         3.059619         0.158747
 C         1.997953         1.775108         0.009602
 C         3.036281         1.356602         1.075983
 O         3.605579         0.134876         0.450557
 C         2.768251        -0.032860        -0.751700
 C         2.446279         1.369871        -1.354597
 O         1.109601         0.882932        -1.769211
 C         1.296867         0.359284        -0.337044
 C         0.058843        -0.287910         0.129824
 H         0.712710         3.015628         1.128577
 H         2.053025         3.862963         0.169292
 H         0.516075         3.062130        -0.635347
 H         3.801884         2.081069         1.422849
 H         2.567549         1.044322         1.953657
 H         3.034995        -1.090647        -1.151280
 H         3.168084         1.874665        -1.994589
 H         0.165257        -0.551496         1.178453
 H        -0.745907         0.473847         0.143453
 H        -0.230741        -1.072346        -0.468900
