19
Iteration:  3174
 C         1.170419         2.973444         0.236724
 C         2.007321         1.682556         0.091341
 C         3.087814         1.370531         1.040039
 O         3.468960         0.037744         0.491541
 C         2.757234        -0.054679        -0.689709
 C         2.535731         1.319439        -1.403376
 O         1.183749         0.978438        -1.872389
 C         1.314970         0.427330        -0.475076
 C         0.129366        -0.135208         0.218787
 H         0.475239         3.061818         1.079405
 H         2.071106         3.735824         0.428617
 H         0.532327         3.195665        -0.605037
 H         3.900315         2.111047         1.007508
 H         2.822412         1.181798         2.041192
 H         3.083713        -1.042546        -1.284510
 H         3.211769         1.791291        -2.141196
 H         0.592261        -0.776548         1.003761
 H        -0.673726         0.545452         0.541044
 H        -0.414252        -0.883619        -0.385006
