19
Iteration:  3112charge 0 multiplicity 1
 C         1.295701         3.086485         0.200490
 C         1.966361         1.776156         0.038707
 C         3.005825         1.324038         0.958733
 O         3.542460        -0.001825         0.466196
 C         2.770186        -0.008876        -0.673641
 C         2.501676         1.372453        -1.322627
 O         1.168870         0.908313        -1.794995
 C         1.277366         0.419754        -0.404659
 C         0.122241        -0.280089         0.168334
 H         0.979500         3.211297         1.282328
 H         2.004775         3.845862         0.025296
 H         0.532259         3.294887        -0.500428
 H         3.823187         2.093476         1.077769
 H         2.529517         1.118704         1.967431
 H         2.867435        -0.821216        -1.403117
 H         3.161606         1.966587        -1.968707
 H         0.270415        -0.407761         1.209576
 H        -0.700925         0.410564         0.139342
 H        -0.040429        -1.320147        -0.333675
