19
Iteration:  2226
 C         1.197049         3.057160         0.224843
 C         2.028760         1.767281        -0.031955
 C         3.115260         1.407581         1.054235
 O         3.481048         0.015699         0.556530
 C         2.715055        -0.090498        -0.732199
 C         2.490638         1.304473        -1.395266
 O         1.116414         0.978263        -1.853696
 C         1.325255         0.390651        -0.436714
 C         0.222032        -0.245553         0.207707
 H         0.655391         3.093538         1.237129
 H         1.838198         3.875762         0.276918
 H         0.439641         3.156003        -0.661530
 H         4.022782         2.037624         1.158286
 H         2.664675         1.290079         2.005505
 H         2.929761        -1.136604        -1.345039
 H         3.061628         1.976553        -2.082393
 H         0.504438        -0.648517         1.228709
 H        -0.527872         0.508887         0.463661
 H        -0.197190        -0.971975        -0.397577
