19
Iteration:  4657charge 0 multiplicity 1
 C         1.240052         3.060238         0.260017
 C         1.973976         1.728752         0.054270
 C         3.056518         1.343115         1.080072
 O         3.503669        -0.006595         0.467633
 C         2.776426        -0.066390        -0.672382
 C         2.600830         1.430731        -1.324644
 O         1.188314         1.004137        -1.896265
 C         1.183082         0.420765        -0.534218
 C         0.085733        -0.304298         0.188025
 H         0.732957         3.071222         1.273033
 H         1.972934         3.989325         0.310161
 H         0.504958         3.108238        -0.484337
 H         4.006903         1.897193         0.920436
 H         2.805756         1.265053         2.100244
 H         3.091312        -1.008458        -1.275789
 H         3.265170         2.010126        -1.941421
 H         0.504228        -0.397054         1.179227
 H        -0.855812         0.257260         0.281016
 H        -0.023015        -1.328362        -0.304485
