19
Iteration:  1168
 C         1.293600         3.036634         0.186734
 C         2.012074         1.764131         0.024562
 C         2.914050         1.215244         1.078343
 O         3.668910         0.142637         0.414520
 C         2.780008        -0.026222        -0.717925
 C         2.509689         1.374886        -1.462613
 O         1.129699         0.826480        -1.806367
 C         1.311536         0.472904        -0.384100
 C         0.100196        -0.185422         0.297691
 H         0.737067         3.005190         1.111598
 H         1.920092         3.922489         0.135656
 H         0.468494         3.070911        -0.666060
 H         3.716837         1.789599         1.496140
 H         2.198432         0.773567         1.892676
 H         2.910126        -0.882260        -1.182264
 H         2.897847         1.989262        -2.358314
 H         0.492387        -0.717380         1.131173
 H        -0.554720         0.652526         0.719395
 H        -0.527725        -0.755777        -0.466824
