19
Iteration:   816charge 0 multiplicity 1
 C         1.160494         3.039006         0.447257
 C         1.971247         1.828122         0.067744
 C         3.258085         1.404286         0.849139
 O         3.468045        -0.036765         0.504737
 C         2.645311        -0.093195        -0.629454
 C         2.562665         1.345293        -1.392659
 O         1.256392         0.961665        -1.970546
 C         1.219174         0.458373        -0.481227
 C         0.091120        -0.268724         0.205468
 H         0.778320         2.730040         1.552474
 H         1.707265         3.963804         0.543979
 H         0.290177         3.241446        -0.070260
 H         4.035894         1.964004         0.484600
 H         3.371016         1.439159         2.009844
 H         2.771006        -1.082222        -1.240505
 H         3.112311         1.825282        -2.138081
 H         0.463009        -0.135558         1.332034
 H        -0.921053         0.108740         0.148337
 H        -0.016181        -1.231637        -0.154495
