19
Iteration:  3580
 C         1.180156         2.998767         0.273193
 C         2.025783         1.764670         0.008573
 C         3.037724         1.336121         1.029647
 O         3.480905        -0.006318         0.469183
 C         2.726049        -0.052472        -0.650817
 C         2.547558         1.337664        -1.416850
 O         1.151516         1.004602        -1.823249
 C         1.345178         0.493689        -0.416557
 C         0.156742        -0.252734         0.154997
 H         1.008678         3.220612         1.343250
 H         1.997494         3.866263        -0.103887
 H         0.327963         3.180198        -0.344750
 H         3.964224         1.804605         1.217854
 H         2.670362         1.126280         2.018785
 H         2.808458        -1.021195        -1.211275
 H         3.163384         1.847096        -2.221610
 H         0.551977        -0.629764         1.071356
 H        -0.604145         0.506469         0.400743
 H        -0.159816        -1.200233        -0.474337
