19
Iteration:  1880charge 0 multiplicity 1
 C         1.232496         3.020340         0.190985
 C         1.970613         1.729859         0.054834
 C         3.111335         1.389209         1.012592
 O         3.700830         0.164023         0.421653
 C         2.754920        -0.090499        -0.662091
 C         2.504667         1.240075        -1.325707
 O         1.176733         0.937337        -1.836222
 C         1.172306         0.426890        -0.425249
 C        -0.011136        -0.248567         0.162365
 H         0.452889         3.008162         0.914945
 H         1.937847         3.870227         0.569697
 H         0.854721         3.410424        -0.841737
 H         3.856499         2.079598         1.339788
 H         2.664997         0.778658         1.910956
 H         3.016040        -1.018389        -1.081182
 H         3.274167         1.965752        -1.779914
 H         0.218706        -0.422453         1.271010
 H        -0.788670         0.517080         0.206361
 H        -0.265810        -1.237426        -0.157792
