19
Iteration:   626
 C         1.285124         2.997216         0.339540
 C         2.023124         1.725031         0.082633
 C         3.231064         1.359724         0.998986
 O         3.555212         0.020165         0.467708
 C         2.775944        -0.066266        -0.708107
 C         2.420036         1.458210        -1.434165
 O         1.094664         0.867300        -1.787583
 C         1.277574         0.428600        -0.394834
 C         0.048164        -0.205212         0.078000
 H         0.731167         3.012769         1.283925
 H         2.036896         3.871765         0.344790
 H         0.520431         3.250475        -0.564787
 H         4.074439         1.996381         1.097772
 H         2.751435         1.304456         2.083712
 H         2.903632        -0.983777        -1.139574
 H         2.977263         2.172364        -2.120618
 H        -0.039101        -0.437132         1.094333
 H        -0.770767         0.551292        -0.054635
 H        -0.232449        -1.132350        -0.631611
