19
Iteration:  2025charge 0 multiplicity 1
 C         1.280302         3.110682         0.194761
 C         1.939089         1.737999         0.036787
 C         3.119817         1.376529         1.047678
 O         3.592271         0.123863         0.467182
 C         2.701061        -0.041268        -0.667413
 C         2.535775         1.300721        -1.342331
 O         1.108007         0.927822        -1.816509
 C         1.272304         0.434249        -0.431181
 C         0.070741        -0.344837         0.173447
 H         0.556465         3.191101         1.029296
 H         2.216839         3.780503         0.209801
 H         0.808080         3.437618        -0.669624
 H         3.846962         2.147946         1.145939
 H         2.665306         1.174502         2.047056
 H         3.028477        -0.975595        -1.224677
 H         3.349382         1.655490        -2.042047
 H         0.436695        -0.909604         0.992793
 H        -0.905206         0.136809         0.376449
 H        -0.158745        -1.170852        -0.596341
