19
Iteration:   690charge 0 multiplicity 1
 C         1.227976         3.002847         0.338005
 C         2.051476         1.806977        -0.019554
 C         3.079608         1.306879         0.957326
 O         3.446669        -0.003094         0.462916
 C         2.734052        -0.037831        -0.751496
 C         2.546544         1.363770        -1.397295
 O         1.170552         0.943047        -1.823145
 C         1.283381         0.539657        -0.426992
 C         0.158798        -0.270785         0.257239
 H         0.778467         2.857647         1.246403
 H         1.791085         3.985122         0.401450
 H         0.362281         3.161733        -0.434645
 H         3.929268         1.998144         1.140892
 H         2.560056         1.085077         1.870312
 H         2.847094        -0.960791        -1.260589
 H         3.256743         1.859532        -2.134769
 H         0.480562        -0.998563         0.948396
 H        -0.379065         0.454386         0.882181
 H        -0.403122        -0.838544        -0.568323
