19
Iteration:  4764charge 0 multiplicity 1
 C         1.128135         3.037639         0.348222
 C         2.071376         1.772802         0.012005
 C         3.112179         1.333856         1.061346
 O         3.422930        -0.014821         0.578309
 C         2.739574        -0.098852        -0.747665
 C         2.557596         1.405262        -1.480886
 O         1.216505         0.956772        -1.891335
 C         1.289097         0.448994        -0.477692
 C         0.179152        -0.208180         0.206614
 H         0.698695         2.755739         1.260866
 H         1.635734         4.032417         0.326477
 H         0.371657         3.039073        -0.373789
 H         3.957268         1.997424         1.146994
 H         2.682875         1.428904         2.120691
 H         3.046029        -1.099138        -1.264923
 H         3.116344         1.861560        -2.221483
 H         0.389159        -0.743257         1.042443
 H        -0.675050         0.443022         0.329425
 H        -0.295648        -0.905485        -0.604157
