19
Iteration:  4402
 C         1.221380         3.015954         0.266380
 C         1.963730         1.684494         0.048376
 C         3.082254         1.309072         1.057395
 O         3.575966         0.058319         0.502230
 C         2.792481        -0.019541        -0.755366
 C         2.589222         1.403860        -1.391141
 O         1.184621         0.934487        -1.880668
 C         1.306837         0.400376        -0.351135
 C        -0.039216        -0.219336         0.135536
 H         0.532600         2.965534         1.083038
 H         1.999018         3.720773         0.723564
 H         0.485130         3.403867        -0.490311
 H         4.001629         1.976319         1.005483
 H         2.586575         1.221379         2.105481
 H         2.949777        -0.887178        -1.310277
 H         3.135712         2.105046        -2.031489
 H         0.240026        -0.812535         1.060280
 H        -0.724085         0.641834         0.247227
 H        -0.290810        -0.942101        -0.641978
