19
Iteration:  3891
 C         1.196557         2.980203         0.304877
 C         1.989799         1.717953         0.086324
 C         2.927909         1.243324         1.180090
 O         3.675658         0.172955         0.366691
 C         2.789217        -0.129045        -0.749721
 C         2.576086         1.267678        -1.435374
 O         1.159125         0.947322        -1.832354
 C         1.302821         0.402409        -0.456290
 C         0.060239        -0.061440         0.186217
 H         0.807686         3.244980         1.328634
 H         1.822416         3.808927         0.017693
 H         0.381104         2.907920        -0.537648
 H         3.765537         1.962096         1.452941
 H         2.503297         0.792415         2.097818
 H         3.029422        -1.026457        -1.433027
 H         3.102541         1.994746        -2.079710
 H         0.294884        -0.491627         1.264107
 H        -0.741880         0.792251         0.240928
 H        -0.344667        -0.783035        -0.480178
