19
Iteration:  3943
 C         1.236057         3.049302         0.260456
 C         1.928741         1.736734         0.077171
 C         3.175547         1.329508         1.008000
 O         3.415933         0.033085         0.541204
 C         2.780015        -0.003370        -0.703662
 C         2.512878         1.311810        -1.386044
 O         1.171488         1.006594        -1.818273
 C         1.276588         0.428276        -0.444356
 C         0.138180        -0.306110         0.123009
 H         0.618158         2.962736         1.114422
 H         2.141535         3.736845         0.496116
 H         0.717874         3.330620        -0.693217
 H         4.035333         2.013326         0.659786
 H         3.009036         1.266696         2.126088
 H         2.968434        -0.914542        -1.371848
 H         3.001947         1.885571        -2.122575
 H         0.486668        -0.611407         1.164916
 H        -0.706452         0.394716         0.168750
 H        -0.173026        -1.073325        -0.501151
