19
Iteration:  1138charge 0 multiplicity 1
 C         1.307638         3.105023         0.183893
 C         1.952896         1.749501         0.110179
 C         3.051591         1.359478         1.011041
 O         3.643887         0.148194         0.398177
 C         2.790135        -0.105831        -0.699934
 C         2.499115         1.317391        -1.326133
 O         1.120649         0.906664        -1.773662
 C         1.269756         0.350200        -0.396565
 C         0.016998        -0.275429         0.154593
 H         0.925059         3.294520         1.153467
 H         2.051450         3.900924        -0.128174
 H         0.498949         3.249786        -0.552410
 H         3.903786         1.994365         1.232193
 H         2.598923         1.155116         2.069618
 H         3.101589        -1.005073        -1.286051
 H         3.016678         1.945222        -2.144636
 H         0.346343        -1.045267         0.919881
 H        -0.532424         0.488281         0.801290
 H        -0.717152        -0.681619        -0.683109
