19
Iteration:  2515charge 0 multiplicity 1
 C         1.325497         3.030711         0.222339
 C         2.003487         1.786944         0.066915
 C         3.083289         1.356120         1.041733
 O         3.514507         0.089641         0.427815
 C         2.808760        -0.057364        -0.717501
 C         2.504954         1.325072        -1.423901
 O         1.127189         0.923799        -1.763615
 C         1.273474         0.424079        -0.451212
 C         0.056260        -0.283963         0.219865
 H         0.813175         3.047027         1.150010
 H         2.113190         3.817193         0.113911
 H         0.578303         3.279236        -0.588552
 H         3.856247         2.131568         1.361545
 H         2.594279         1.018414         2.016659
 H         2.926586        -0.926654        -1.273015
 H         2.982088         2.094534        -2.087258
 H         0.245108        -0.493050         1.239873
 H        -0.818185         0.389029        -0.040516
 H        -0.144750        -1.371976        -0.201095
