19
Iteration:  3988charge 0 multiplicity 1
 C         1.305116         3.165912         0.312777
 C         2.069677         1.814415         0.044666
 C         3.059409         1.334650         1.060197
 O         3.415431         0.055983         0.453092
 C         2.639122        -0.005933        -0.702204
 C         2.590250         1.318987        -1.457996
 O         1.148248         0.938343        -1.806264
 C         1.230603         0.457167        -0.397434
 C         0.180341        -0.444265         0.143197
 H         0.715224         3.191082         1.183656
 H         2.055820         4.070108         0.503006
 H         0.657023         3.477022        -0.603209
 H         3.987158         1.969024         0.879869
 H         2.699372         1.180586         2.118307
 H         3.001990        -0.952475        -1.217224
 H         3.359555         1.554564        -2.149279
 H         0.459849        -0.867362         1.173286
 H        -0.800368         0.099920         0.140130
 H         0.024823        -1.140778        -0.597055
