19
Iteration:  4989charge 0 multiplicity 1
 C         1.255653         3.036495         0.264886
 C         1.988399         1.751970         0.038395
 C         3.006508         1.306983         1.058451
 O         3.615236         0.012933         0.412719
 C         2.818337         0.003632        -0.688307
 C         2.505266         1.431839        -1.312218
 O         1.156591         0.865404        -1.828656
 C         1.228836         0.418960        -0.445424
 C         0.053745        -0.205176         0.153284
 H         0.539867         2.947912         1.091662
 H         1.971165         3.758268         0.571796
 H         0.894738         3.315987        -0.757662
 H         3.901945         1.998343         1.063501
 H         2.658156         0.965099         2.043674
 H         3.136722        -0.912975        -1.235697
 H         3.083768         2.086236        -2.059439
 H         0.252430        -0.734821         1.100298
 H        -0.586450         0.658773         0.375541
 H        -0.400883        -0.896524        -0.550721
