19
Iteration:   656charge 0 multiplicity 1
 C         1.181443         3.033023         0.507937
 C         1.999010         1.753003         0.044320
 C         3.265813         1.437013         0.842843
 O         3.390499         0.034891         0.539352
 C         2.700909        -0.069604        -0.712182
 C         2.577345         1.244379        -1.434981
 O         1.228981         0.999374        -1.901783
 C         1.214773         0.497624        -0.455119
 C         0.084967        -0.319696         0.173809
 H         0.803397         2.841216         1.458003
 H         1.816676         3.957189         0.535077
 H         0.351297         3.187220        -0.208113
 H         4.178351         2.031050         0.530635
 H         3.148930         1.551600         1.872562
 H         2.870278        -1.146432        -1.040594
 H         3.360437         1.709883        -2.099426
 H         0.549172        -0.842306         1.016600
 H        -0.709819         0.387648         0.433848
 H        -0.495157        -0.952510        -0.484265
