19
Iteration:  2595
 C         1.223572         3.050401         0.234045
 C         1.982624         1.760819        -0.030941
 C         3.109486         1.381293         0.963794
 O         3.446456         0.015361         0.557647
 C         2.765991        -0.103183        -0.713604
 C         2.540735         1.316418        -1.420929
 O         1.159895         0.977428        -1.765423
 C         1.314664         0.444137        -0.444968
 C         0.111981        -0.259780         0.193892
 H         0.695302         2.982000         1.254372
 H         1.980756         3.887892         0.457783
 H         0.486574         3.213147        -0.468971
 H         3.908688         2.096252         0.658843
 H         3.094959         1.391236         2.105905
 H         2.960036        -0.984953        -1.327120
 H         3.039299         2.014901        -2.066321
 H         0.596857        -0.804217         1.101004
 H        -0.737385         0.363636         0.591339
 H        -0.238534        -0.948106        -0.538912
