19
Iteration:  2950
 C         1.308434         3.133699         0.230001
 C         2.005882         1.723310         0.055569
 C         2.990510         1.363059         1.113065
 O         3.587012         0.162074         0.385983
 C         2.807682        -0.061470        -0.755693
 C         2.543104         1.256470        -1.406806
 O         1.153755         0.921148        -1.784080
 C         1.278538         0.320066        -0.399198
 C         0.017468        -0.257326         0.191234
 H         0.732270         3.129957         1.208505
 H         1.982962         3.940965         0.258614
 H         0.565504         3.315610        -0.643136
 H         3.806422         2.000814         1.297479
 H         2.526489         0.940073         2.025797
 H         3.098405        -1.046292        -1.281195
 H         3.124984         1.876457        -2.169889
 H         0.137110        -0.457112         1.223325
 H        -0.753382         0.516080         0.312318
 H        -0.406818        -1.102138        -0.384745
