19
Iteration:  1416
 C         1.340069         3.079565         0.275399
 C         1.985661         1.715553        -0.027537
 C         3.033478         1.310615         1.059738
 O         3.694217         0.224703         0.395557
 C         2.710611        -0.073572        -0.634141
 C         2.554923         1.283775        -1.366988
 O         1.121816         0.849601        -1.818976
 C         1.217067         0.434281        -0.420810
 C         0.011063        -0.250951         0.164151
 H         0.757829         2.980836         1.161677
 H         2.033383         3.827590         0.319142
 H         0.694281         3.386666        -0.547557
 H         3.651426         2.152941         1.255222
 H         2.568985         1.017522         2.017509
 H         2.880638        -1.040070        -1.002956
 H         3.160112         1.848101        -2.089677
 H         0.112635        -0.503075         1.196713
 H        -0.852763         0.488729         0.123172
 H        -0.210632        -1.158959        -0.442099
