19
Iteration:   745
 C         1.321769         3.105344         0.166252
 C         1.982695         1.757960         0.076986
 C         3.007323         1.165687         1.140052
 O         3.679084         0.146518         0.237926
 C         2.726691        -0.034731        -0.747954
 C         2.522048         1.326442        -1.311161
 O         1.198706         0.983846        -1.742746
 C         1.171418         0.465898        -0.383092
 C         0.035952        -0.329460         0.248452
 H         0.722085         3.176976         0.956039
 H         2.012440         3.989920         0.182283
 H         0.618365         3.361871        -0.745982
 H         3.724073         1.967589         1.456414
 H         2.581573         0.766801         2.008670
 H         2.845331        -0.868251        -1.334416
 H         3.383794         1.775595        -1.928889
 H         0.236944        -0.554010         1.229961
 H        -0.973867         0.211938         0.272741
 H        -0.322562        -1.216005        -0.478510
