19
Iteration:  2250charge 0 multiplicity 1
 C         1.201147         2.990639         0.159806
 C         2.003579         1.730097         0.027657
 C         3.038485         1.241485         1.044840
 O         3.597425         0.121629         0.437939
 C         2.770521         0.011349        -0.757808
 C         2.571052         1.330466        -1.379742
 O         1.204403         0.900483        -1.805823
 C         1.261483         0.471260        -0.379730
 C         0.031529        -0.191133         0.268221
 H         0.679922         3.052090         1.129326
 H         1.865755         3.890637         0.220713
 H         0.455965         3.006921        -0.801525
 H         3.839278         2.003680         1.210955
 H         2.558993         0.980797         1.970710
 H         2.841054        -1.031920        -1.353442
 H         3.199709         1.925190        -2.129551
 H         0.412609        -0.469600         1.283889
 H        -0.697545         0.502174         0.574672
 H        -0.431367        -1.042847        -0.202892
