19
Iteration:    47charge 0 multiplicity 1
 C         1.393740         3.132182         0.180117
 C         1.888616         1.732262         0.059247
 C         2.951901         1.287738         1.112989
 O         3.764328         0.266765         0.370794
 C         2.849787         0.005592        -0.653547
 C         2.483575         1.280568        -1.334601
 O         1.165378         0.793689        -1.888396
 C         1.107892         0.469797        -0.363469
 C        -0.011411        -0.357048         0.190356
 H         0.494718         3.311467         0.749770
 H         2.231355         3.751004         0.654865
 H         1.263458         3.512233        -0.754318
 H         3.560140         1.997342         1.564507
 H         2.433376         0.734324         1.964476
 H         3.109176        -0.862652        -1.182585
 H         3.186125         1.830858        -2.080654
 H         0.316052        -0.941055         0.960124
 H        -0.817998         0.299478         0.562541
 H        -0.535469        -1.030401        -0.636078
