19
Iteration:  2801charge 0 multiplicity 1
 C         1.258236         3.038486         0.230552
 C         2.037216         1.738158         0.046997
 C         2.953374         1.347502         1.062114
 O         3.611695         0.140149         0.376371
 C         2.801736        -0.101417        -0.681719
 C         2.555581         1.284252        -1.416816
 O         1.110398         0.891281        -1.754102
 C         1.316636         0.414924        -0.449160
 C         0.068273        -0.151144         0.196945
 H         0.641015         3.075741         1.164273
 H         1.993208         3.940520         0.424537
 H         0.526428         3.078341        -0.609683
 H         3.835091         2.075222         1.242065
 H         2.480698         0.992966         1.995535
 H         3.024659        -0.981712        -1.129683
 H         3.006353         1.862150        -2.197762
 H         0.334841        -0.934971         1.000568
 H        -0.766137         0.486631         0.599981
 H        -0.435669        -0.766010        -0.498199
