19
Iteration:  2294charge 0 multiplicity 1
 C         1.254670         2.973223         0.227864
 C         2.008807         1.712005         0.040961
 C         3.096792         1.382501         1.063839
 O         3.593695         0.122680         0.464236
 C         2.764938        -0.067708        -0.760738
 C         2.541356         1.297083        -1.447263
 O         1.142439         0.873065        -1.772485
 C         1.243592         0.442233        -0.405988
 C         0.034030        -0.161346         0.206223
 H         0.695559         2.975417         1.164090
 H         1.932902         3.799709         0.393252
 H         0.403358         3.170357        -0.546528
 H         3.893444         2.114973         1.317720
 H         2.596078         1.173512         1.968434
 H         3.077465        -1.002665        -1.418793
 H         3.182852         1.956446        -2.086883
 H         0.095468        -0.380230         1.283415
 H        -0.783227         0.499305         0.067920
 H        -0.117821        -0.997623        -0.491103
