19
Iteration:  4321charge 0 multiplicity 1
 C         1.316244         3.089304         0.155032
 C         1.989597         1.745306         0.134966
 C         2.991424         1.257219         1.096966
 O         3.529030         0.044341         0.462565
 C         2.770138         0.001042        -0.674606
 C         2.601957         1.378990        -1.306995
 O         1.094297         1.013100        -1.848078
 C         1.218807         0.405939        -0.508286
 C         0.174405        -0.320360         0.162773
 H         0.885667         3.239510         1.217930
 H         1.946024         3.922400        -0.010827
 H         0.514763         3.214953        -0.576389
 H         3.785985         1.954505         1.303938
 H         2.618423         0.893138         2.018571
 H         3.004102        -0.876186        -1.385972
 H         3.069301         1.851910        -2.200265
 H         0.291644        -0.613049         1.184054
 H        -0.768778         0.199595         0.129627
 H         0.008838        -1.212009        -0.410816
