19
Iteration:  4498charge 0 multiplicity 1
 C         1.257887         3.053698         0.327646
 C         2.031342         1.810780         0.004708
 C         3.015790         1.315611         0.976005
 O         3.413024        -0.028374         0.590038
 C         2.698051        -0.068063        -0.747034
 C         2.531556         1.408543        -1.405234
 O         1.256071         1.022232        -1.849314
 C         1.280724         0.468854        -0.445754
 C         0.167102        -0.344743         0.150097
 H         0.874159         3.188556         1.373681
 H         1.824363         3.971901         0.156440
 H         0.347211         3.199122        -0.380769
 H         3.858749         1.957099         0.870555
 H         2.682140         1.173271         2.005448
 H         2.905826        -0.948717        -1.359837
 H         3.193656         1.971932        -2.126526
 H         0.581301        -0.701073         1.197440
 H        -0.897895         0.014816         0.228659
 H         0.214692        -1.282428        -0.322762
