19
Iteration:  2492
 C         1.217225         3.054777         0.302177
 C         1.981438         1.805614         0.058145
 C         3.162552         1.331521         0.938075
 O         3.540777         0.025307         0.501788
 C         2.676661        -0.087767        -0.685819
 C         2.496617         1.336275        -1.374243
 O         1.199941         0.925353        -1.849642
 C         1.265532         0.459824        -0.432382
 C         0.106461        -0.247333         0.210048
 H         0.714210         2.839679         1.182887
 H         1.829301         3.933528         0.338447
 H         0.386076         3.259490        -0.469458
 H         3.942828         2.123505         0.678244
 H         2.984051         1.545739         2.013082
 H         2.750431        -0.978666        -1.306355
 H         3.245756         1.795773        -2.068104
 H         0.264429        -0.468338         1.207275
 H        -0.735495         0.398520        -0.091124
 H        -0.029068        -1.317138        -0.290298
