19
Iteration:  1199
 C         1.179700         3.017373         0.229605
 C         1.965512         1.736528         0.035638
 C         3.055673         1.328040         1.026858
 O         3.504040         0.058370         0.459236
 C         2.683819        -0.044743        -0.730636
 C         2.604753         1.310059        -1.443477
 O         1.206408         0.971009        -1.910269
 C         1.277871         0.443263        -0.432700
 C         0.181078        -0.218125         0.374268
 H         0.485252         2.848692         1.087177
 H         1.755233         3.828259         0.573623
 H         0.498178         3.151813        -0.699673
 H         3.985153         1.932236         0.932076
 H         2.780698         1.293781         2.029051
 H         2.826141        -0.939813        -1.266627
 H         3.249263         1.810490        -2.187335
 H         0.551444        -0.463829         1.316069
 H        -0.598491         0.547149         0.451824
 H        -0.199383        -1.166796         0.077185
