19
Iteration:  2449
 C         1.223817         2.955659         0.279415
 C         2.043482         1.734877        -0.024616
 C         3.105903         1.421392         0.956025
 O         3.500454         0.023531         0.497595
 C         2.753534        -0.066658        -0.651969
 C         2.515950         1.319755        -1.416483
 O         1.158721         0.948863        -1.826617
 C         1.291180         0.443777        -0.373792
 C         0.121952        -0.176092         0.180611
 H         0.668142         2.687790         1.125130
 H         1.844483         3.869637         0.457943
 H         0.329855         3.042245        -0.466722
 H         3.972983         2.130726         0.964920
 H         2.912607         1.215764         2.015673
 H         2.844081        -0.999859        -1.101535
 H         2.913092         2.024616        -2.175549
 H         0.328787        -0.602309         1.089832
 H        -0.574992         0.699570         0.251607
 H        -0.371596        -1.040373        -0.469526
