19
Iteration:  1506charge 0 multiplicity 1
 C         1.170464         2.985254         0.272098
 C         2.044280         1.769934        -0.082152
 C         3.140725         1.464286         0.877671
 O         3.423788        -0.030075         0.609899
 C         2.662875        -0.077933        -0.661600
 C         2.548598         1.258123        -1.353178
 O         1.212215         1.068226        -1.870923
 C         1.210943         0.517432        -0.441853
 C         0.200689        -0.320662         0.263421
 H         0.703529         2.687475         1.131125
 H         1.582180         3.932009         0.350030
 H         0.372947         3.161788        -0.552411
 H         4.123559         1.972099         0.659806
 H         2.903244         1.537102         1.900033
 H         2.933754        -1.055566        -1.204658
 H         3.470724         1.646933        -2.012205
 H         0.644707        -0.510666         1.250584
 H        -0.685510         0.331968         0.299337
 H         0.106558        -1.286823        -0.318084
