19
Iteration:  4310
 C         1.347528         3.076440         0.176825
 C         1.895807         1.698153         0.063007
 C         2.998285         1.218532         1.121746
 O         3.606204         0.044578         0.480252
 C         2.810071         0.043798        -0.745829
 C         2.455935         1.376833        -1.338188
 O         1.145558         0.997195        -1.847346
 C         1.278353         0.464483        -0.414681
 C         0.066418        -0.317179         0.142686
 H         0.708727         3.329693         1.113822
 H         2.161415         3.737129         0.026758
 H         0.707221         3.030823        -0.698955
 H         3.808127         1.919544         1.213667
 H         2.543934         1.025671         2.068233
 H         3.177771        -0.879652        -1.313741
 H         3.222116         2.054625        -1.812810
 H         0.419097        -0.472494         1.153598
 H        -0.802828         0.316729         0.147828
 H        -0.123820        -1.281727        -0.274067
