19
Iteration:  3095
 C         1.376357         3.133601         0.244289
 C         1.996382         1.709775         0.061272
 C         3.056061         1.354663         1.138548
 O         3.575705         0.171559         0.434035
 C         2.731344        -0.075927        -0.747908
 C         2.491059         1.324164        -1.373996
 O         1.171430         0.960677        -1.865054
 C         1.251660         0.302313        -0.451325
 C        -0.020445        -0.346435         0.213358
 H         0.866262         3.296899         1.172130
 H         2.228906         3.904916         0.091884
 H         0.639630         3.296138        -0.662210
 H         3.867422         2.046654         1.260347
 H         2.686507         1.183623         2.149268
 H         3.184116        -0.927650        -1.285493
 H         3.073053         1.905639        -2.120226
 H         0.151131        -0.478425         1.343717
 H        -0.958394         0.263716         0.022023
 H        -0.201162        -1.253584        -0.269850
