19
Iteration:    48charge 0 multiplicity 1
 C         1.392973         3.135120         0.185745
 C         1.885739         1.724770         0.052769
 C         2.952306         1.294894         1.112566
 O         3.768614         0.263661         0.373644
 C         2.839989         0.013748        -0.664525
 C         2.490845         1.271348        -1.322584
 O         1.162396         0.797336        -1.892374
 C         1.113661         0.467174        -0.368279
 C        -0.013082        -0.357935         0.197830
 H         0.486806         3.311394         0.746476
 H         2.222699         3.761253         0.646347
 H         1.247751         3.535228        -0.780815
 H         3.581433         2.024524         1.570908
 H         2.419810         0.734000         2.011804
 H         3.101054        -0.893687        -1.209126
 H         3.216209         1.821735        -2.064378
 H         0.365430        -0.965155         0.989305
 H        -0.851161         0.300036         0.542782
 H        -0.549901        -1.011846        -0.661695
