19
Iteration:   161
 C         1.254109         3.055211         0.265092
 C         2.004241         1.777999         0.044416
 C         2.967182         1.311219         1.092221
 O         3.652299         0.120947         0.438636
 C         2.804715        -0.054801        -0.738147
 C         2.468337         1.341990        -1.390559
 O         1.188045         0.831545        -1.797607
 C         1.273511         0.383557        -0.436840
 C         0.067898        -0.168198         0.116075
 H         1.126217         3.274048         1.347910
 H         1.795160         3.861910        -0.182280
 H         0.239960         3.013787        -0.295318
 H         3.644474         2.029497         1.593222
 H         2.274736         0.968597         1.995727
 H         3.132054        -0.844316        -1.402830
 H         3.012998         1.787066        -2.196320
 H         0.253590        -0.299719         1.306473
 H        -0.787011         0.578783         0.126595
 H        -0.128739        -1.195910        -0.162567
