19
Iteration:  1633
 C         1.223811         3.018328         0.244825
 C         2.025899         1.784009         0.045423
 C         3.150036         1.440994         0.903852
 O         3.296257        -0.005203         0.611573
 C         2.716660        -0.047262        -0.726817
 C         2.556251         1.311718        -1.390627
 O         1.218742         0.991076        -1.895843
 C         1.297866         0.478605        -0.401337
 C         0.209266        -0.378618         0.253501
 H         0.827023         3.415619         1.289366
 H         1.700381         3.897045        -0.246655
 H         0.345976         2.814612        -0.273104
 H         4.122816         1.939318         0.760230
 H         2.931996         1.460065         2.032553
 H         2.982588        -0.916802        -1.372052
 H         3.071333         1.865005        -2.070921
 H         0.496933        -0.585046         1.246678
 H        -0.670092         0.302229         0.377734
 H        -0.130209        -1.081053        -0.519681
