19
Iteration:  4929
 C         1.185669         2.950739         0.250472
 C         2.070331         1.805253         0.027790
 C         3.087964         1.277927         1.070294
 O         3.448703         0.021898         0.491443
 C         2.727675        -0.007391        -0.770462
 C         2.561183         1.391048        -1.390521
 O         1.186196         0.958801        -1.800636
 C         1.315506         0.431163        -0.458097
 C         0.117603        -0.224874         0.201810
 H         0.627328         2.957990         1.204031
 H         1.762693         3.950160         0.144769
 H         0.403710         3.134453        -0.452995
 H         3.935098         1.931324         1.148358
 H         2.737073         1.237186         2.148299
 H         3.124471        -0.843353        -1.350243
 H         3.118103         1.799534        -2.199771
 H         0.432196        -0.712932         1.126118
 H        -0.678037         0.525072         0.366386
 H        -0.330377        -0.978027        -0.544559
