19
Iteration:  3815
 C         1.361863         3.036488         0.275988
 C         2.034246         1.842462         0.000415
 C         3.129727         1.399073         0.963658
 O         3.425296        -0.013829         0.549409
 C         2.718709        -0.042438        -0.661548
 C         2.532288         1.351711        -1.440477
 O         1.141248         1.071955        -1.773139
 C         1.210240         0.476888        -0.439650
 C         0.120498        -0.457856         0.135324
 H         0.621437         2.784541         1.113830
 H         1.767770         3.848538         0.738400
 H         0.816668         3.261230        -0.724754
 H         3.959218         2.034767         0.885377
 H         2.885919         1.397062         1.997883
 H         2.833796        -1.088942        -1.139503
 H         3.251312         1.759848        -2.164261
 H         0.329382        -0.879009         1.152102
 H        -0.850456         0.097515         0.073298
 H         0.106051        -1.234201        -0.535845
