19
Iteration:  1541charge 0 multiplicity 1
 C         1.223810         3.070772         0.225858
 C         1.951004         1.768850        -0.007633
 C         3.095415         1.340524         1.024999
 O         3.555080         0.081282         0.459129
 C         2.816592        -0.020991        -0.706157
 C         2.491180         1.337294        -1.418120
 O         1.196324         0.787625        -1.791169
 C         1.294021         0.415596        -0.373809
 C         0.062429        -0.200208         0.206013
 H         0.346856         2.943835         0.795687
 H         1.877212         3.686220         0.877618
 H         0.864305         3.528062        -0.704285
 H         3.947413         2.128309         1.119270
 H         2.672152         1.230387         1.983488
 H         3.025745        -0.928410        -1.350427
 H         3.142400         2.005467        -2.161085
 H         0.149929        -0.859918         1.151422
 H        -0.591308         0.602897         0.573819
 H        -0.585037        -0.609206        -0.569186
