19
Iteration:   375
 C         1.278448         3.057365         0.336580
 C         2.002214         1.765737         0.032447
 C         3.203297         1.407491         0.949246
 O         3.383075        -0.010853         0.562062
 C         2.651746        -0.023926        -0.714748
 C         2.523555         1.354259        -1.360050
 O         1.195928         1.028807        -1.868694
 C         1.242619         0.416322        -0.441976
 C         0.155714        -0.386864         0.155851
 H         0.620614         2.896143         1.148431
 H         1.941300         3.926343         0.596823
 H         0.719144         3.391279        -0.534242
 H         4.066941         2.188281         0.614351
 H         3.227957         1.344165         2.021597
 H         2.845657        -1.028992        -1.270299
 H         3.060401         1.974667        -2.154433
 H         0.408308        -0.470083         1.197192
 H        -0.809093         0.071535        -0.088081
 H         0.037644        -1.484339        -0.292194
