19
Iteration:   355charge 0 multiplicity 1
 C         1.308506         3.064130         0.336045
 C         2.014551         1.749443         0.087799
 C         3.116712         1.370623         1.007971
 O         3.609247         0.131084         0.399490
 C         2.707105        -0.067634        -0.652390
 C         2.520838         1.245927        -1.346363
 O         1.151300         1.014642        -1.823632
 C         1.189639         0.426298        -0.422862
 C        -0.004902        -0.358141         0.090404
 H         0.664271         3.088517         1.197212
 H         2.058982         3.793297         0.463362
 H         0.743305         3.390652        -0.584410
 H         4.021490         2.051798         0.918109
 H         2.771344         1.383783         1.999688
 H         2.877107        -1.020384        -1.150496
 H         3.342145         1.828120        -1.895920
 H         0.159600        -0.473885         1.068251
 H        -0.947776        -0.022148        -0.244817
 H        -0.008799        -1.335481        -0.373578
