19
Iteration:  4574
 C         1.281476         3.032512         0.257150
 C         1.959753         1.656730         0.174014
 C         3.078280         1.302228         1.103099
 O         3.597467         0.138669         0.434363
 C         2.752749        -0.031525        -0.762323
 C         2.521124         1.324992        -1.327203
 O         1.204850         0.929808        -1.824510
 C         1.254291         0.415108        -0.466704
 C         0.012964        -0.223312         0.071221
 H         0.482246         3.164558         0.999792
 H         1.789823         3.899864         0.279840
 H         0.786062         3.269562        -0.747358
 H         3.934855         1.973079         1.290320
 H         2.594449         0.937823         2.145781
 H         3.011178        -0.948369        -1.265148
 H         3.043454         2.047191        -2.047339
 H         0.440318        -0.795116         0.986116
 H        -0.601426         0.664104         0.368505
 H        -0.559891        -0.851392        -0.540832
