19
Iteration:  1071
 C         1.218049         3.026857         0.278944
 C         2.047050         1.796579        -0.056346
 C         3.124262         1.407632         0.891287
 O         3.433834        -0.026995         0.576103
 C         2.768173        -0.094109        -0.716134
 C         2.512499         1.377585        -1.392986
 O         1.123959         0.974587        -1.837246
 C         1.293205         0.485955        -0.419240
 C         0.146026        -0.335414         0.272709
 H         0.765252         2.833044         1.173415
 H         1.967626         3.826949         0.333010
 H         0.477152         3.480406        -0.460195
 H         3.958632         2.059230         0.808890
 H         2.862718         1.293798         2.021201
 H         3.006156        -0.920831        -1.211514
 H         3.212696         1.905028        -2.188526
 H         0.503509        -0.484144         1.274809
 H        -0.834931         0.282831         0.394597
 H        -0.078966        -1.240586        -0.447533
