19
Iteration:  4841
 C         1.303000         3.109984         0.208315
 C         2.029903         1.711676         0.071110
 C         3.034325         1.247175         1.085312
 O         3.596066         0.122331         0.457950
 C         2.779560        -0.051576        -0.755346
 C         2.515328         1.396825        -1.322355
 O         1.124006         0.883461        -1.771766
 C         1.274354         0.445737        -0.422962
 C         0.055362        -0.269056         0.089634
 H         0.609670         3.207020         1.015537
 H         2.195596         3.778300         0.437516
 H         0.768885         3.259939        -0.681233
 H         3.695047         2.089512         1.236757
 H         2.439769         0.967048         2.083681
 H         2.870375        -0.957289        -1.449192
 H         2.952903         2.150247        -1.885678
 H         0.230786        -0.521075         1.078640
 H        -0.897055         0.266731         0.047984
 H        -0.202724        -1.242935        -0.487438
