19
Iteration:  1930
 C         1.146152         2.993990         0.323718
 C         2.087550         1.840190        -0.014242
 C         3.124121         1.374077         0.956134
 O         3.400267         0.001326         0.604509
 C         2.721860        -0.092928        -0.635920
 C         2.529434         1.420600        -1.481555
 O         1.184277         0.876207        -1.838875
 C         1.315126         0.418160        -0.529255
 C         0.189446        -0.162735         0.196650
 H         0.607940         2.715947         1.302897
 H         1.489106         3.977006         0.354515
 H         0.320733         2.988535        -0.453653
 H         4.124009         1.958229         0.795729
 H         2.915143         1.365029         2.009775
 H         3.034595        -0.992595        -1.168150
 H         3.071636         1.815042        -2.289689
 H         0.606618        -0.446149         1.211368
 H        -0.754232         0.401295         0.277225
 H        -0.053069        -1.139163        -0.258047
