19
Iteration:   453charge 0 multiplicity 1
 C         1.271203         3.034958         0.205860
 C         1.952309         1.710817         0.106919
 C         2.969186         1.222837         1.132891
 O         3.717220         0.150870         0.309684
 C         2.805806        -0.093312        -0.758390
 C         2.511582         1.370255        -1.348829
 O         1.161214         0.948409        -1.803269
 C         1.269850         0.390080        -0.380231
 C         0.006020        -0.170418         0.193654
 H         0.744778         3.141749         1.131474
 H         1.959938         3.817706         0.099210
 H         0.466014         3.078490        -0.604367
 H         3.779627         1.958369         1.560834
 H         2.463138         0.716421         1.882403
 H         3.056685        -0.912440        -1.323738
 H         3.161331         1.995910        -2.020029
 H         0.292304        -0.883114         0.900134
 H        -0.457868         0.690837         0.764230
 H        -0.863188        -0.594331        -0.501405
