19
Iteration:  3410
 C         1.249663         3.059286         0.303317
 C         2.050063         1.829354        -0.003985
 C         3.146227         1.378753         0.953631
 O         3.426054         0.001150         0.471309
 C         2.676425        -0.075277        -0.643535
 C         2.591290         1.331464        -1.351208
 O         1.194951         0.990542        -1.813929
 C         1.293983         0.470373        -0.414470
 C         0.089881        -0.330234         0.183831
 H         0.608389         2.996458         1.223870
 H         1.701672         3.971013         0.035774
 H         0.378707         2.902369        -0.501352
 H         4.035379         2.004599         0.990753
 H         2.767467         1.179181         1.908277
 H         2.851773        -0.950590        -1.361779
 H         3.113851         1.864481        -2.191440
 H         0.342108        -0.856630         1.153103
 H        -0.765790         0.359340         0.271372
 H        -0.057307        -1.118247        -0.555047
