19
Iteration:  3941
 C         1.231166         3.054716         0.242527
 C         1.950583         1.725899         0.087121
 C         3.169719         1.349696         1.007975
 O         3.418832         0.029719         0.524935
 C         2.779475        -0.014351        -0.723575
 C         2.511025         1.319311        -1.379732
 O         1.178139         0.997794        -1.814323
 C         1.275174         0.417671        -0.426183
 C         0.130647        -0.292497         0.125834
 H         0.586044         2.964691         1.218757
 H         2.106120         3.804165         0.542578
 H         0.682863         3.335760        -0.651805
 H         4.028193         2.017058         0.740058
 H         2.936084         1.229517         2.088040
 H         2.952479        -0.937452        -1.316752
 H         3.073251         1.897080        -2.123638
 H         0.485723        -0.566190         1.108459
 H        -0.689699         0.384459         0.179365
 H        -0.210555        -1.115093        -0.540990
