19
Iteration:  2148charge 0 multiplicity 1
 C         1.354446         3.057949         0.155889
 C         2.002868         1.769196         0.009866
 C         3.041209         1.337228         1.078089
 O         3.607067         0.145934         0.448402
 C         2.764549        -0.027806        -0.734970
 C         2.452444         1.375777        -1.362977
 O         1.105972         0.884012        -1.771543
 C         1.299519         0.352352        -0.338555
 C         0.060412        -0.286890         0.138904
 H         0.700081         2.999845         1.123026
 H         2.048298         3.898138         0.127981
 H         0.557225         3.074492        -0.612511
 H         3.778130         2.068606         1.402738
 H         2.558310         1.015974         1.973216
 H         2.997462        -1.041407        -1.151742
 H         3.148517         1.853690        -1.995272
 H         0.170988        -0.547279         1.161871
 H        -0.737262         0.531561         0.094110
 H        -0.251607        -1.085089        -0.489918
