19
Iteration:  1565charge 0 multiplicity 1
 C         1.311693         3.077388         0.190826
 C         1.970477         1.723917         0.010332
 C         3.013141         1.283726         1.116214
 O         3.750735         0.267972         0.380461
 C         2.796868        -0.098863        -0.643808
 C         2.495312         1.265692        -1.383949
 O         1.125016         0.853926        -1.818165
 C         1.204983         0.364308        -0.449151
 C         0.001856        -0.187682         0.198793
 H         0.343670         3.078203         0.788219
 H         1.993706         3.811836         0.738900
 H         0.993799         3.361576        -0.731812
 H         3.652628         2.121026         1.576558
 H         2.406500         0.861309         1.933016
 H         3.011390        -1.024905        -1.065009
 H         3.214052         1.764442        -2.055194
 H         0.217068        -0.944839         1.013874
 H        -0.603276         0.579565         0.705728
 H        -0.683999        -0.519979        -0.560595
