19
Iteration:  1398charge 0 multiplicity 1
 C         1.217654         3.096404         0.281132
 C         1.987457         1.833615         0.051827
 C         3.109305         1.406328         0.963365
 O         3.547608         0.041822         0.470837
 C         2.794340        -0.091343        -0.682427
 C         2.471998         1.286388        -1.449631
 O         1.194980         0.856034        -1.794407
 C         1.269546         0.422779        -0.339227
 C         0.063615        -0.232146         0.153333
 H         0.448812         2.932968         1.032764
 H         1.941153         3.879126         0.680397
 H         0.639871         3.433136        -0.704756
 H         4.079412         2.089728         0.983843
 H         2.738339         1.275358         1.959962
 H         3.066623        -0.915813        -1.376735
 H         3.231696         1.704918        -2.247924
 H         0.220979        -0.590443         1.163597
 H        -0.829235         0.370902         0.281825
 H        -0.303334        -1.033193        -0.515443
