19
Iteration:  2710
 C         1.282944         3.049786         0.207171
 C         2.020543         1.786294         0.032523
 C         3.073492         1.257282         1.051476
 O         3.496818         0.112320         0.414737
 C         2.685326        -0.002930        -0.646668
 C         2.514396         1.331131        -1.394354
 O         1.188080         0.936865        -1.795173
 C         1.243083         0.438365        -0.448678
 C         0.154311        -0.300162         0.226400
 H         0.839473         3.236403         1.146046
 H         1.994951         3.850163         0.198887
 H         0.381266         3.195199        -0.563122
 H         3.958368         1.946908         1.166374
 H         2.616464         1.004730         2.042089
 H         2.727155        -0.932553        -1.292577
 H         3.197086         1.785082        -2.215259
 H         0.435486        -0.281216         1.230058
 H        -0.792346         0.198157         0.126561
 H         0.075041        -1.324769        -0.268704
