19
Iteration:   177charge 0 multiplicity 1
 C         1.321092         3.152717         0.230265
 C         2.006175         1.780539         0.038029
 C         2.926859         1.191525         1.146391
 O         3.647441         0.245474         0.380732
 C         2.805934         0.022583        -0.706989
 C         2.513110         1.295002        -1.432310
 O         1.088057         0.773708        -1.762358
 C         1.332483         0.381958        -0.358890
 C         0.033757        -0.254089         0.127038
 H         0.912497         3.235944         1.243251
 H         2.075398         4.023782         0.117938
 H         0.537088         3.282817        -0.443764
 H         3.750354         1.873662         1.538304
 H         2.396889         0.711823         1.901293
 H         3.063306        -1.001734        -1.142866
 H         3.072714         1.927124        -2.194138
 H        -0.106896        -0.513778         1.126585
 H        -0.606906         0.601392        -0.130095
 H        -0.051394        -1.111449        -0.613951
