19
Iteration:  4881
 C         1.348896         3.082031         0.323666
 C         1.971550         1.755868         0.049897
 C         3.087945         1.371386         1.017925
 O         3.478208         0.079489         0.466037
 C         2.665299        -0.023057        -0.692609
 C         2.574013         1.281510        -1.388741
 O         1.206805         0.985816        -1.851870
 C         1.178224         0.480199        -0.424657
 C         0.125590        -0.400878         0.102614
 H         0.830212         3.030723         1.300153
 H         1.958017         4.005511         0.193866
 H         0.425662         3.315553        -0.371237
 H         3.970675         2.024204         1.222925
 H         2.713374         1.223490         2.024815
 H         2.809257        -1.092655        -1.013876
 H         3.291025         1.920866        -1.936362
 H         0.469432        -0.556456         1.141245
 H        -0.855826         0.091104         0.053107
 H         0.088361        -1.388706        -0.484674
