19
Iteration:   585
 C         1.325537         3.018960         0.202026
 C         1.997104         1.719904         0.033293
 C         2.938620         1.141965         1.041265
 O         3.690240         0.192077         0.299264
 C         2.690636        -0.057656        -0.722629
 C         2.579557         1.313416        -1.316677
 O         1.166078         1.067237        -1.792568
 C         1.238082         0.440132        -0.424689
 C         0.037851        -0.246734         0.303475
 H         0.715915         3.078995         1.141856
 H         2.068668         3.766168         0.124717
 H         0.685339         3.178435        -0.709947
 H         3.668592         1.763444         1.567215
 H         2.431595         0.599613         1.921015
 H         2.768998        -0.954855        -1.247873
 H         3.052686         2.151260        -1.813261
 H         0.323687        -0.204199         1.326325
 H        -0.949127         0.094829        -0.036202
 H        -0.067899        -1.392987         0.037155
