19
Iteration:  3598charge 0 multiplicity 1
 C         1.371384         3.117624         0.199178
 C         2.021386         1.711161         0.063781
 C         2.990947         1.231786         1.090199
 O         3.571453         0.070019         0.538550
 C         2.743388        -0.034750        -0.809691
 C         2.498067         1.385990        -1.338656
 O         1.131113         0.991153        -1.868666
 C         1.206789         0.396684        -0.508580
 C         0.134359        -0.280083         0.231671
 H         0.899068         3.106647         1.203341
 H         1.962956         3.955871        -0.013300
 H         0.443120         3.061066        -0.386114
 H         3.731489         2.112104         1.163680
 H         2.518842         1.041418         2.101525
 H         3.126147        -0.957904        -1.310454
 H         3.007368         1.992235        -2.076580
 H         0.413901        -0.759938         1.200326
 H        -0.734818         0.432282         0.382967
 H        -0.122935        -1.122333        -0.302575
