19
Iteration:  1992charge 0 multiplicity 1
 C         1.315318         3.127521         0.106014
 C         2.024132         1.803269         0.098842
 C         3.051191         1.254633         1.141180
 O         3.571080         0.160912         0.450150
 C         2.771174         0.021953        -0.727407
 C         2.487480         1.362934        -1.397624
 O         1.068107         0.860512        -1.756838
 C         1.310679         0.337724        -0.402617
 C         0.058642        -0.310254         0.163897
 H         0.862373         3.500083         1.023083
 H         2.111666         3.940096        -0.054029
 H         0.655915         3.027017        -0.689416
 H         3.804794         1.890163         1.544035
 H         2.423038         0.898710         1.998409
 H         3.155525        -0.868508        -1.371029
 H         3.188644         1.775357        -2.196485
 H         0.275659        -0.887000         1.011903
 H        -0.737725         0.408763         0.367534
 H        -0.111889        -1.018915        -0.691080
