19
Iteration:  2977charge 0 multiplicity 1
 C         1.202462         3.000342         0.201011
 C         2.046056         1.739328        -0.032121
 C         3.049003         1.285141         1.030178
 O         3.552575         0.032258         0.487781
 C         2.779171        -0.013100        -0.657238
 C         2.553364         1.349259        -1.406643
 O         1.114629         0.874430        -1.825633
 C         1.267893         0.515576        -0.406109
 C         0.153327        -0.154920         0.191805
 H         0.763292         2.888840         1.186189
 H         1.678111         4.040480         0.065880
 H         0.417806         3.042481        -0.465738
 H         3.934602         1.939263         1.367905
 H         2.610743         1.026930         1.991953
 H         2.872057        -0.954578        -1.182482
 H         2.991312         2.083273        -2.066561
 H         0.379585        -0.586137         1.214029
 H        -0.663382         0.463026         0.586381
 H        -0.190022        -0.932321        -0.528286
