19
Iteration:  2925
 C         1.350217         3.068606         0.222873
 C         1.952541         1.707309         0.049582
 C         3.065034         1.366528         1.035664
 O         3.682603         0.103129         0.453766
 C         2.721554        -0.065547        -0.661207
 C         2.434475         1.393615        -1.341900
 O         1.183959         0.874699        -1.865528
 C         1.174826         0.474825        -0.371918
 C         0.042420        -0.284167         0.139375
 H         0.614587         3.195095         1.230320
 H         2.184973         3.819691         0.348805
 H         0.788309         3.305444        -0.681068
 H         3.919269         2.098299         0.935209
 H         2.611788         1.105181         2.067285
 H         2.836144        -1.104030        -1.254829
 H         3.142683         1.747627        -2.105209
 H         0.235719        -0.372688         1.222231
 H        -0.957510         0.141114         0.203413
 H        -0.049887        -1.333291        -0.429997
