19
Iteration:  1356
 C         1.101357         2.960419         0.218750
 C         2.046979         1.743768        -0.036548
 C         3.176275         1.428213         0.925543
 O         3.388889        -0.018010         0.574600
 C         2.673821        -0.097134        -0.667757
 C         2.592000         1.309695        -1.417728
 O         1.227406         1.085971        -1.857362
 C         1.266570         0.427498        -0.431341
 C         0.198380        -0.247359         0.325939
 H         0.203581         3.008193         0.934859
 H         1.758523         3.873097         0.588636
 H         0.482797         3.056668        -0.770823
 H         4.031320         2.051126         0.575088
 H         2.949366         1.562021         2.014846
 H         2.925108        -1.057284        -1.268616
 H         3.301905         1.787295        -2.195018
 H         0.829549        -0.839255         1.123055
 H        -0.637241         0.315633         0.734991
 H        -0.291632        -0.964347        -0.394277
