19
Iteration:  2272charge 0 multiplicity 1
 C         1.181851         3.060788         0.167790
 C         2.002779         1.743314         0.080025
 C         3.002701         1.261085         1.093459
 O         3.716945         0.119660         0.334997
 C         2.756112        -0.102081        -0.611029
 C         2.486563         1.340357        -1.362035
 O         1.171105         0.912798        -1.855406
 C         1.302151         0.372355        -0.418092
 C         0.038851        -0.124779         0.251523
 H         0.648197         3.107880         1.116242
 H         1.821822         3.950893         0.299161
 H         0.400063         3.096268        -0.740348
 H         3.810281         1.983058         1.337039
 H         2.549701         0.882751         1.963330
 H         3.098922        -0.964404        -1.342068
 H         3.208779         1.748600        -2.135312
 H         0.122150        -0.412770         1.308880
 H        -0.705487         0.624277         0.260588
 H        -0.326182        -0.968960        -0.345995
