19
Iteration:  3440charge 0 multiplicity 1
 C         1.296679         3.086970         0.232175
 C         1.938888         1.768369         0.045572
 C         3.107087         1.316470         1.040370
 O         3.416916        -0.057658         0.518170
 C         2.768413        -0.020772        -0.664908
 C         2.497283         1.367145        -1.366830
 O         1.160289         1.001736        -1.861142
 C         1.263312         0.450412        -0.487140
 C         0.193655        -0.298991         0.216640
 H         0.986746         3.298785         1.306573
 H         1.856974         3.942080        -0.103486
 H         0.502440         3.041663        -0.622592
 H         4.003876         2.081439         0.968150
 H         2.888455         1.151497         2.162200
 H         2.997239        -0.735645        -1.501618
 H         2.973794         1.952750        -2.239161
 H         0.460213        -0.593867         1.214340
 H        -0.743052         0.280164         0.283983
 H         0.128690        -1.381197        -0.349849
