19
Iteration:  4696charge 0 multiplicity 1
 C         1.338493         3.106156         0.188804
 C         2.042738         1.826826         0.022423
 C         2.978209         1.255849         1.084998
 O         3.629175         0.085408         0.455966
 C         2.726023        -0.062581        -0.694993
 C         2.548847         1.340501        -1.339241
 O         1.091309         0.949304        -1.703103
 C         1.321465         0.438922        -0.429067
 C         0.040265        -0.299484         0.067984
 H         0.689084         3.001152         1.055363
 H         2.034832         3.896524         0.281970
 H         0.636385         3.398121        -0.699119
 H         3.649119         2.007228         1.477204
 H         2.591365         0.843698         2.093580
 H         2.946411        -0.889912        -1.293456
 H         2.880343         2.028303        -2.130372
 H         0.070272        -0.896113         1.004131
 H        -0.974873         0.043429        -0.114892
 H         0.083630        -1.077771        -0.707093
