19
Iteration:  2520charge 0 multiplicity 1
 C         1.339435         3.093342         0.187445
 C         2.034884         1.757969         0.071748
 C         3.050724         1.317292         1.076042
 O         3.557394         0.112676         0.432989
 C         2.781056        -0.068898        -0.735288
 C         2.462835         1.346864        -1.423079
 O         1.137717         0.937034        -1.760896
 C         1.269972         0.397942        -0.465132
 C         0.058001        -0.304962         0.210832
 H         0.710308         3.048407         1.182117
 H         2.159521         3.909736         0.138115
 H         0.515439         3.199373        -0.495114
 H         3.775828         2.041957         1.384505
 H         2.555909         1.126109         2.038705
 H         2.949253        -1.098440        -1.262260
 H         2.923423         2.014366        -2.141098
 H         0.310743        -0.496901         1.332793
 H        -0.715418         0.399771        -0.036301
 H        -0.186013        -1.233697        -0.150155
