19
Iteration:   373
 C         1.283125         3.057251         0.330722
 C         1.992057         1.755357         0.041899
 C         3.217474         1.417920         0.952103
 O         3.401370         0.014176         0.554140
 C         2.628971        -0.038298        -0.706777
 C         2.525664         1.349201        -1.353541
 O         1.190580         1.037392        -1.878974
 C         1.243313         0.408045        -0.447376
 C         0.147627        -0.393277         0.137019
 H         0.609492         2.900564         1.180017
 H         1.983859         3.966253         0.616092
 H         0.740108         3.391162        -0.508756
 H         4.032408         2.186384         0.681815
 H         3.250875         1.274383         2.079025
 H         2.884894        -1.054071        -1.276927
 H         3.073904         1.875736        -2.147722
 H         0.363229        -0.460807         1.309078
 H        -0.836471         0.128001        -0.078345
 H         0.041803        -1.524837        -0.286868
