19
Iteration:   565charge 0 multiplicity 1
 C         1.295383         3.062578         0.244057
 C         1.971473         1.688829         0.081693
 C         2.991540         1.214940         1.173863
 O         3.540138         0.010257         0.403080
 C         2.771953         0.026295        -0.826363
 C         2.497945         1.376167        -1.419321
 O         1.106831         1.013588        -1.871361
 C         1.291024         0.452461        -0.465700
 C         0.184772        -0.231427         0.308399
 H         0.663619         3.199673         1.156526
 H         2.021199         3.821190         0.230845
 H         0.667459         3.241913        -0.549579
 H         3.920779         1.784046         1.502577
 H         2.448164         0.967636         1.990935
 H         3.071277        -0.904015        -1.463027
 H         3.092842         1.822255        -2.193841
 H         0.457107        -0.147281         1.410840
 H        -0.743334         0.202152        -0.042937
 H         0.078466        -1.265657         0.103063
