19
Iteration:  2029
 C         1.282464         3.107187         0.230036
 C         1.976323         1.750359         0.048288
 C         3.117501         1.358034         1.047741
 O         3.563211         0.145368         0.469333
 C         2.688960        -0.062779        -0.660850
 C         2.543079         1.285402        -1.339977
 O         1.124359         0.926094        -1.852422
 C         1.238715         0.456935        -0.439247
 C         0.103822        -0.367483         0.162404
 H         0.488245         3.217096         1.016040
 H         2.035654         3.798589         0.250162
 H         0.742601         3.429448        -0.710479
 H         3.941872         2.182609         0.982379
 H         2.821999         1.196812         2.061225
 H         3.038837        -0.862824        -1.212921
 H         3.282934         1.540454        -2.022008
 H         0.379948        -0.835384         1.121028
 H        -0.809022         0.138091         0.366390
 H        -0.255719        -1.097754        -0.483941
