19
Iteration:  4860charge 0 multiplicity 1
 C         1.330137         3.133490         0.268251
 C         2.051854         1.862409         0.037842
 C         2.989374         1.309126         1.077010
 O         3.580511         0.077160         0.473129
 C         2.744571        -0.049621        -0.648343
 C         2.497717         1.338287        -1.466677
 O         1.112989         0.964515        -1.791056
 C         1.265015         0.393411        -0.364828
 C         0.091193        -0.372602         0.089778
 H         0.708037         3.032258         1.180983
 H         2.137951         3.942350         0.403200
 H         0.544591         3.386624        -0.561617
 H         3.907487         1.771729         1.431870
 H         2.610231         0.949369         2.035129
 H         2.964247        -0.890657        -1.389490
 H         3.111983         1.629872        -2.285951
 H         0.100772        -0.674748         1.113438
 H        -0.767890         0.242475        -0.223313
 H         0.029427        -1.244167        -0.711036
