19
Iteration:  4084
 C         1.158394         2.893279         0.295966
 C         2.055255         1.809881         0.024661
 C         3.155849         1.489523         1.061825
 O         3.442523         0.006816         0.441755
 C         2.727302        -0.103620        -0.719734
 C         2.558622         1.258748        -1.409256
 O         1.207362         0.988305        -1.795309
 C         1.328887         0.499941        -0.406060
 C         0.066654        -0.181934         0.121834
 H         0.693310         2.500008         1.211094
 H         1.599277         3.943363         0.588719
 H         0.298780         3.203610        -0.387353
 H         4.142524         1.805455         0.920762
 H         2.822243         1.344326         2.091223
 H         3.164301        -0.937498        -1.423601
 H         3.127666         1.678111        -2.160704
 H         0.353937        -0.581785         1.205174
 H        -0.907911         0.341721         0.277067
 H        -0.221373        -1.024759        -0.480069
