19
Iteration:  4642charge 0 multiplicity 1
 C         1.185942         2.994317         0.331277
 C         1.964848         1.771667         0.033110
 C         3.079635         1.318530         0.936453
 O         3.421285        -0.043649         0.568530
 C         2.751788        -0.005815        -0.775913
 C         2.538867         1.357325        -1.342149
 O         1.265632         0.999409        -1.878164
 C         1.328107         0.445974        -0.463527
 C         0.155975        -0.238621         0.201995
 H         0.783753         2.951022         1.319045
 H         1.831116         3.865152         0.176990
 H         0.465693         3.149105        -0.516202
 H         3.848043         2.097634         0.882252
 H         2.583457         1.216426         1.969956
 H         2.926595        -0.795130        -1.450774
 H         3.159710         2.057451        -1.898723
 H         0.373041        -0.566131         1.229140
 H        -0.709945         0.431267         0.152894
 H        -0.230770        -1.242038        -0.147561
