19
Iteration:  3236charge 0 multiplicity 1
 C         1.347534         3.040537         0.249367
 C         2.050556         1.779623         0.026582
 C         3.055443         1.316542         1.078507
 O         3.605367         0.155051         0.456327
 C         2.691467        -0.083615        -0.617316
 C         2.570953         1.328399        -1.369178
 O         1.062331         0.982110        -1.858774
 C         1.261906         0.363844        -0.478742
 C         0.028142        -0.297716         0.125709
 H         0.843331         2.994618         1.241333
 H         2.019051         3.848785         0.343429
 H         0.646988         3.316502        -0.634477
 H         3.794377         2.134547         1.290730
 H         2.641306         1.060239         2.168357
 H         2.979388        -1.149211        -0.879099
 H         3.150553         1.810860        -2.213936
 H         0.371085        -0.644126         1.196886
 H        -0.929641         0.349280         0.158159
 H        -0.190676        -1.103455        -0.597451
