19
Iteration:  4716charge 0 multiplicity 1
 C         1.329314         3.115555         0.252827
 C         1.959148         1.794535         0.109301
 C         3.053500         1.286608         1.110315
 O         3.591915         0.089523         0.427893
 C         2.776634        -0.005172        -0.677774
 C         2.488055         1.307451        -1.385433
 O         1.156850         0.968292        -1.856570
 C         1.248154         0.398031        -0.371594
 C         0.033712        -0.339066         0.051843
 H         0.619493         3.079639         1.156829
 H         2.103293         3.833508         0.201200
 H         0.829982         3.196871        -0.832977
 H         3.896808         1.952645         1.380251
 H         2.661427         1.076149         2.154127
 H         3.025935        -0.889038        -1.182597
 H         3.239445         1.922781        -2.044798
 H         0.225784        -0.820225         1.111019
 H        -0.830202         0.360457         0.148666
 H        -0.333058        -1.149934        -0.489821
