19
Iteration:   419charge 0 multiplicity 1
 C         1.221121         3.010558         0.277513
 C         2.041790         1.747835         0.058778
 C         2.981890         1.303385         1.101464
 O         3.475633         0.010048         0.441335
 C         2.719021        -0.037841        -0.775976
 C         2.537069         1.319676        -1.441058
 O         1.191789         1.034283        -1.881951
 C         1.288491         0.492347        -0.488722
 C         0.209443        -0.249975         0.284046
 H         0.725955         2.971546         1.215091
 H         1.760346         3.984131         0.261046
 H         0.459691         3.074845        -0.543727
 H         4.004616         1.816702         1.351046
 H         2.546248         1.171366         2.078054
 H         2.872423        -1.017301        -1.292410
 H         3.213086         1.914811        -2.138091
 H         0.732088        -0.680885         1.155041
 H        -0.522785         0.429505         0.779621
 H        -0.376026        -1.222005        -0.199158
