19
Iteration:  1863charge 0 multiplicity 1
 C         1.310399         3.092793         0.130921
 C         1.966806         1.740423         0.053230
 C         2.962687         1.226532         1.133772
 O         3.721527         0.187290         0.381824
 C         2.790189        -0.027817        -0.660676
 C         2.500364         1.321530        -1.386466
 O         1.132687         0.889398        -1.781742
 C         1.265874         0.377987        -0.323038
 C         0.012189        -0.238568         0.185155
 H         0.480305         3.179843         0.962396
 H         2.070290         3.861742         0.189918
 H         0.827483         3.331692        -0.737022
 H         3.765296         2.069563         1.179313
 H         2.533099         1.025418         2.050646
 H         2.950854        -0.985583        -1.379492
 H         3.046597         1.787598        -2.204713
 H         0.064073        -0.599706         1.185124
 H        -0.851738         0.429652        -0.027281
 H        -0.167775        -1.061670        -0.590830
