19
Iteration:  3900
 C         1.180584         3.002838         0.285673
 C         1.976121         1.720397         0.057990
 C         3.041745         1.194172         1.167161
 O         3.674172         0.144542         0.392145
 C         2.790962        -0.071754        -0.750696
 C         2.520847         1.255051        -1.460745
 O         1.184136         0.941141        -1.821523
 C         1.295105         0.516831        -0.413414
 C         0.029211        -0.072072         0.149320
 H         0.752398         2.932097         1.195389
 H         1.832348         3.863367        -0.044234
 H         0.278664         2.924086        -0.427036
 H         3.662297         2.068514         1.617331
 H         2.365844         0.764164         1.957995
 H         3.021957        -1.116186        -1.193504
 H         3.237212         1.800050        -2.012788
 H         0.357127        -0.603405         1.160195
 H        -0.888572         0.552120         0.388838
 H        -0.276392        -0.915624        -0.383384
