19
Iteration:  1896
 C         1.193131         3.004450         0.257682
 C         2.020042         1.742265         0.038703
 C         3.103467         1.373351         1.025216
 O         3.549635         0.121443         0.443172
 C         2.711513        -0.060921        -0.666445
 C         2.582144         1.301971        -1.380732
 O         1.227587         0.921089        -1.825019
 C         1.274002         0.400406        -0.464107
 C         0.013287        -0.200866         0.222279
 H         0.281408         2.753311         0.972591
 H         1.700561         3.850882         0.691188
 H         0.758234         3.208470        -0.670586
 H         3.940719         2.150098         0.758076
 H         2.925009         1.439885         2.064961
 H         2.976290        -1.014390        -1.298356
 H         3.168970         1.631736        -2.217749
 H         0.215452        -0.444278         1.263669
 H        -0.896848         0.410808         0.202466
 H        -0.190683        -1.213427        -0.229822
