19
Iteration:   666
 C         1.160935         2.993057         0.479582
 C         2.024326         1.816237         0.046072
 C         3.260410         1.432123         0.940133
 O         3.419320         0.032464         0.520020
 C         2.595321        -0.132803        -0.643941
 C         2.587362         1.281413        -1.461775
 O         1.228403         0.994613        -1.990110
 C         1.239217         0.540322        -0.481490
 C         0.096068        -0.298830         0.207940
 H         0.795992         2.880134         1.474807
 H         1.806610         3.879225         0.500282
 H         0.335402         3.210613        -0.137422
 H         4.114353         2.141977         0.579378
 H         3.231282         1.355487         1.955388
 H         2.728486        -1.200653        -1.191899
 H         3.328742         1.671591        -2.191541
 H         0.643364        -1.005982         0.925044
 H        -0.606161         0.227864         0.884792
 H        -0.230447        -0.986242        -0.504262
