19
Iteration:  3423
 C         1.180219         3.096757         0.218537
 C         2.046894         1.787007         0.059046
 C         3.142294         1.296015         0.965028
 O         3.408845        -0.010978         0.530998
 C         2.678588        -0.043974        -0.778805
 C         2.563788         1.419652        -1.366698
 O         1.175682         0.938096        -1.792238
 C         1.279332         0.457381        -0.416926
 C         0.198420        -0.319909         0.152909
 H         1.010281         3.241230         1.283649
 H         1.871265         3.973891         0.170246
 H         0.305700         3.215828        -0.479473
 H         4.057733         1.830057         0.918618
 H         2.815933         1.412197         1.961757
 H         2.653473        -1.108966        -1.114127
 H         3.373911         1.960934        -1.815427
 H         0.439972        -0.619452         1.243450
 H        -0.762236         0.219541         0.220103
 H        -0.115474        -1.096335        -0.389501
