19
Iteration:  1246charge 0 multiplicity 1
 C         1.155014         3.127614         0.322456
 C         2.060640         1.789741         0.060415
 C         3.220316         1.457736         0.922577
 O         3.454377         0.025017         0.507754
 C         2.724038        -0.088591        -0.710077
 C         2.529347         1.257136        -1.469170
 O         1.157496         0.926624        -1.766697
 C         1.297435         0.472508        -0.342282
 C         0.079905        -0.333733         0.119664
 H         0.560696         3.278073         1.217297
 H         1.900054         3.992108         0.419333
 H         0.466440         3.120561        -0.611130
 H         4.074635         2.092292         0.788165
 H         3.046802         1.282051         2.059525
 H         2.855137        -1.037391        -1.125653
 H         3.152128         1.674986        -2.382807
 H         0.030316        -0.446285         1.228185
 H        -0.747546         0.265453        -0.307445
 H         0.150004        -1.456841        -0.162603
