19
Iteration:  1080charge 0 multiplicity 1
 C         1.215182         3.047581         0.264678
 C         2.038797         1.826764        -0.070902
 C         3.196287         1.402536         0.877117
 O         3.396227        -0.036691         0.591466
 C         2.735428        -0.078394        -0.637238
 C         2.560227         1.383571        -1.432447
 O         1.101458         0.969662        -1.756035
 C         1.288043         0.465225        -0.432733
 C         0.177650        -0.324857         0.183081
 H         0.830871         2.846554         1.267187
 H         1.890305         3.843532         0.500936
 H         0.344860         3.305937        -0.422179
 H         4.084492         1.893346         0.645765
 H         2.823275         1.643501         1.959493
 H         2.977739        -0.890438        -1.204178
 H         3.028562         1.839813        -2.345744
 H         0.518991        -0.868615         1.084773
 H        -0.822589         0.219093         0.406717
 H        -0.102137        -1.248161        -0.456377
