19
Iteration:  1643charge 0 multiplicity 1
 C         1.168233         3.007656         0.243635
 C         2.042732         1.820289        -0.000864
 C         3.189919         1.390921         0.904713
 O         3.307593         0.016677         0.599418
 C         2.644017        -0.063998        -0.664957
 C         2.579908         1.328289        -1.371422
 O         1.227953         1.021916        -1.950616
 C         1.265849         0.438008        -0.390394
 C         0.228054        -0.349252         0.241821
 H         1.133423         3.127826         1.430240
 H         1.710882         3.927563        -0.130188
 H         0.270945         2.942650        -0.203285
 H         4.085653         2.046007         0.607759
 H         2.918847         1.610593         1.954160
 H         2.752086        -1.004211        -1.186999
 H         3.333062         1.898987        -1.902782
 H         0.520177        -0.668010         1.252311
 H        -0.740312         0.202343         0.255139
 H         0.095624        -1.382271        -0.191544
