19
Iteration:   825charge 0 multiplicity 1
 C         1.153343         3.008858         0.425621
 C         1.983362         1.752204         0.002095
 C         3.235346         1.353388         0.924079
 O         3.519718        -0.018995         0.458781
 C         2.635826        -0.035380        -0.661350
 C         2.548387         1.289783        -1.406446
 O         1.251739         0.955954        -1.907300
 C         1.199939         0.521370        -0.424186
 C         0.103117        -0.200601         0.190705
 H         0.723576         2.876263         1.483136
 H         1.712245         3.927133         0.494778
 H         0.349831         3.128278        -0.251282
 H         4.041642         1.970891         0.570678
 H         2.947275         1.595960         2.017776
 H         2.794148        -1.032646        -1.281169
 H         3.164272         1.929568        -1.989572
 H         0.486226        -0.481435         1.296542
 H        -0.887712         0.264591         0.168200
 H         0.095116        -1.266475        -0.127900
