19
Iteration:  3071
 C         1.366301         3.119866         0.245210
 C         1.944141         1.730005         0.005716
 C         3.022448         1.314616         1.028155
 O         3.678156         0.121921         0.412935
 C         2.717994        -0.044545        -0.633758
 C         2.501549         1.288979        -1.362109
 O         1.136231         0.880271        -1.763495
 C         1.202668         0.503151        -0.379729
 C         0.062392        -0.296700         0.096184
 H         0.702258         3.095120         1.134969
 H         2.130701         3.882357         0.314181
 H         0.725647         3.318793        -0.724636
 H         3.752652         2.031245         1.295248
 H         2.497108         1.034015         1.986915
 H         2.897517        -0.888631        -1.170008
 H         3.152993         1.744937        -2.120217
 H         0.225766        -0.479966         1.171785
 H        -0.926393         0.204328         0.038250
 H         0.085366        -1.180781        -0.494337
