19
Iteration:  3263charge 0 multiplicity 1
 C         1.285384         3.125788         0.217048
 C         1.966885         1.786692         0.077398
 C         3.062143         1.298827         0.992697
 O         3.438689        -0.015365         0.496229
 C         2.733720         0.001805        -0.745396
 C         2.571029         1.368490        -1.358274
 O         1.204427         0.931192        -1.814022
 C         1.297911         0.437044        -0.367212
 C         0.096751        -0.321716         0.178718
 H         0.836108         3.190204         1.214136
 H         1.961149         4.071678         0.119626
 H         0.483956         3.126711        -0.453065
 H         3.800530         2.114090         0.799803
 H         2.948194         1.200695         2.036459
 H         2.993084        -0.928523        -1.271490
 H         3.064700         1.892212        -2.140558
 H         0.333546        -0.494417         1.173718
 H        -0.810211         0.175840        -0.011797
 H         0.011693        -1.188007        -0.498921
