19
Iteration:  1819charge 0 multiplicity 1
 C         1.295290         3.122921         0.238250
 C         1.943234         1.767200         0.053575
 C         3.017892         1.330564         0.954008
 O         3.481327         0.059495         0.538417
 C         2.716646        -0.027685        -0.643563
 C         2.565803         1.304011        -1.437087
 O         1.211375         0.972670        -1.857407
 C         1.239225         0.482658        -0.459530
 C         0.179859        -0.405924         0.245074
 H         0.985544         3.458622         1.291342
 H         1.857627         3.821941        -0.309141
 H         0.428515         3.002002        -0.267941
 H         3.788811         2.188905         0.913203
 H         2.749933         1.285283         1.943642
 H         2.924437        -1.067743        -1.206599
 H         3.236008         1.830062        -2.122280
 H         0.603767        -0.704028         1.163063
 H        -0.739607         0.180603         0.489324
 H        -0.333566        -1.213956        -0.380376
