19
Iteration:  3084
 C         1.379332         3.078045         0.206556
 C         2.002534         1.767436         0.115548
 C         3.052691         1.295167         1.083094
 O         3.602843         0.194915         0.432722
 C         2.786681        -0.014263        -0.672593
 C         2.530411         1.273626        -1.403776
 O         1.118557         0.927949        -1.842029
 C         1.189011         0.406028        -0.447182
 C        -0.007137        -0.378863         0.145256
 H         0.892486         3.219110         1.149815
 H         2.275433         3.874667         0.289089
 H         0.619579         3.476163        -0.638449
 H         3.751155         2.090358         1.148208
 H         2.706317         0.922876         2.040585
 H         2.871772        -1.001822        -1.120896
 H         3.175732         1.933342        -2.025634
 H         0.159123        -0.477703         1.307714
 H        -0.865410         0.381361         0.040538
 H        -0.249174        -1.329841        -0.150833
