19
Iteration:   224charge 0 multiplicity 1
 C         1.285459         3.110954         0.190428
 C         1.942762         1.741183         0.057686
 C         3.174137         1.409472         0.974580
 O         3.453318         0.058057         0.537360
 C         2.693161        -0.021374        -0.667824
 C         2.488215         1.362875        -1.368221
 O         1.179143         0.988282        -1.800691
 C         1.292032         0.383890        -0.434230
 C         0.121475        -0.433931         0.153052
 H         0.417614         3.160069         0.845929
 H         2.009554         3.718248         0.707883
 H         0.998030         3.595688        -0.813298
 H         4.000577         2.099896         0.876160
 H         2.933432         1.210961         1.999230
 H         2.908090        -1.007592        -1.274404
 H         3.195386         1.892461        -2.141796
 H         0.403798        -0.848420         1.107851
 H        -0.683903         0.266295         0.426325
 H        -0.193100        -1.284518        -0.563864
