19
Iteration:  2968
 C         1.220222         2.997573         0.205313
 C         2.017492         1.788856         0.008538
 C         3.015114         1.256298         1.042212
 O         3.591559         0.074056         0.487647
 C         2.711304        -0.037241        -0.656967
 C         2.473942         1.357041        -1.441745
 O         1.137501         0.884970        -1.791057
 C         1.350493         0.444464        -0.405305
 C         0.163881        -0.143909         0.203997
 H         0.756777         3.118026         1.282540
 H         1.989551         3.811577         0.125287
 H         0.477258         3.048106        -0.562270
 H         3.846081         2.024996         1.229972
 H         2.397354         0.968316         1.950152
 H         2.943100        -0.960238        -1.299987
 H         3.054470         1.871108        -2.226786
 H         0.355252        -0.726164         1.122294
 H        -0.617886         0.632434         0.199867
 H        -0.212082        -0.910070        -0.617492
