19
Iteration:   553charge 0 multiplicity 1
 C         1.245696         3.090849         0.294377
 C         2.025197         1.817894         0.035494
 C         3.009219         1.234937         1.059356
 O         3.414109        -0.062983         0.455252
 C         2.777888        -0.005027        -0.805104
 C         2.555175         1.416072        -1.431312
 O         1.103100         0.943171        -1.797660
 C         1.326174         0.418369        -0.487304
 C         0.245132        -0.240048         0.255648
 H         0.718032         3.082806         1.269891
 H         1.965667         3.845681         0.386818
 H         0.576845         3.303606        -0.524144
 H         3.897698         1.909915         1.207141
 H         2.610490         1.001613         1.966125
 H         2.954219        -0.838291        -1.485361
 H         3.039207         2.146466        -2.066307
 H         0.338331        -0.144844         1.336118
 H        -0.692603         0.323873         0.160466
 H         0.179868        -1.335005        -0.012416
