19
Iteration:   207
 C         1.378922         3.151385         0.220250
 C         1.989057         1.755074         0.086403
 C         3.008596         1.359385         1.071321
 O         3.649584         0.189702         0.401599
 C         2.751884        -0.061794        -0.686822
 C         2.530432         1.260240        -1.295312
 O         1.124762         0.917198        -1.824738
 C         1.150256         0.402797        -0.456094
 C         0.005257        -0.417570         0.121151
 H         0.479282         3.216948         0.891447
 H         2.097264         3.918437         0.594042
 H         1.100960         3.431129        -0.780591
 H         3.832291         2.150200         1.005049
 H         2.773370         1.204922         2.191476
 H         3.001171        -0.880925        -1.237397
 H         3.147577         1.860094        -1.852149
 H         0.355153        -0.810605         1.179108
 H        -0.836840         0.253265         0.373296
 H        -0.034232        -1.267783        -0.509666
