19
Iteration:  4150
 C         1.373991         3.097845         0.200620
 C         2.016222         1.803965         0.041517
 C         2.963360         1.290084         1.142846
 O         3.576466         0.097011         0.399166
 C         2.762560        -0.037252        -0.672495
 C         2.514715         1.359183        -1.360474
 O         1.096487         0.970555        -1.859119
 C         1.252648         0.377030        -0.374344
 C         0.099301        -0.358435         0.126965
 H         0.930586         3.119094         1.159510
 H         2.114302         3.927454         0.354041
 H         0.737296         3.415213        -0.672984
 H         3.746351         1.995195         1.405804
 H         2.434969         0.925442         2.012435
 H         3.021779        -0.935880        -1.319057
 H         3.046151         1.993037        -1.991428
 H         0.406711        -0.794787         1.186457
 H        -0.835924         0.278364         0.237436
 H        -0.083375        -1.210942        -0.454406
