19
Iteration:  4682charge 0 multiplicity 1
 C         1.321353         3.092270         0.222068
 C         2.032041         1.741099         0.065578
 C         2.980007         1.307966         1.115246
 O         3.554737         0.083244         0.396943
 C         2.756392        -0.046308        -0.686747
 C         2.514689         1.344049        -1.390811
 O         1.141443         0.993200        -1.800125
 C         1.256615         0.460400        -0.316135
 C         0.109812        -0.365079         0.065056
 H         0.639625         3.200124         1.160097
 H         2.000347         3.933397         0.312531
 H         0.657211         3.138452        -0.732413
 H         3.913842         1.867019         1.308013
 H         2.348205         1.022496         1.954711
 H         2.916756        -1.002740        -1.180768
 H         3.336247         1.841585        -2.038041
 H         0.151016        -0.637434         1.202324
 H        -0.703016         0.372232        -0.047645
 H         0.031589        -1.187446        -0.560155
