19
Iteration:  1027charge 0 multiplicity 1
 C         1.250200         3.094852         0.206885
 C         1.999495         1.709695        -0.003191
 C         2.939846         1.136042         1.052276
 O         3.747573         0.145988         0.345347
 C         2.850963        -0.039451        -0.756024
 C         2.512543         1.295300        -1.369165
 O         1.103425         0.901293        -1.808078
 C         1.263482         0.453901        -0.355292
 C         0.065987        -0.116806         0.334015
 H         0.588130         2.933108         0.955391
 H         1.906007         3.969265         0.270421
 H         0.568918         3.239285        -0.716518
 H         3.607492         1.786549         1.555204
 H         2.149860         0.727458         1.811143
 H         3.014972        -0.827698        -1.306112
 H         2.999620         2.122840        -2.069626
 H         0.154382        -0.059003         1.407865
 H        -0.976906         0.320910         0.074456
 H        -0.124847        -1.191816        -0.078336
