19
Iteration:   979charge 0 multiplicity 1
 C         1.212959         3.028043         0.312096
 C         1.946951         1.743320         0.037637
 C         3.175217         1.361932         0.909517
 O         3.599268         0.039981         0.413932
 C         2.696444        -0.064919        -0.654915
 C         2.492551         1.330855        -1.344581
 O         1.206316         0.954133        -1.812688
 C         1.244747         0.449193        -0.414158
 C         0.057769        -0.228584         0.196266
 H         0.661619         2.986882         1.316727
 H         1.895422         3.804117         0.095424
 H         0.499486         3.089727        -0.419476
 H         3.974271         2.126740         0.740679
 H         3.049017         1.256553         2.032415
 H         2.886184        -1.044104        -1.308862
 H         3.261863         1.806275        -1.835720
 H         0.101493        -0.332301         1.341408
 H        -0.908448         0.260178         0.045881
 H        -0.146574        -1.117681        -0.314092
