19
Iteration:  2660
 C         1.291401         2.956053         0.189904
 C         2.024956         1.678535         0.049588
 C         3.054124         1.336625         1.082025
 O         3.592369         0.149913         0.404959
 C         2.723486        -0.077576        -0.720853
 C         2.510195         1.365143        -1.388041
 O         1.108845         0.890622        -1.835149
 C         1.316545         0.390278        -0.369839
 C         0.061930        -0.139543         0.190306
 H         0.778397         2.885087         1.195676
 H         2.036130         3.805834         0.405139
 H         0.517694         3.156302        -0.457654
 H         3.801485         2.127243         1.324726
 H         2.618787         1.126026         2.107078
 H         3.030855        -0.912326        -1.325639
 H         3.064525         2.021416        -2.022398
 H         0.246493        -0.526028         1.307325
 H        -0.706907         0.707056         0.131659
 H        -0.315282        -0.976405        -0.368013
