19
Iteration:  3130
 C         1.199679         3.081817         0.241562
 C         2.005642         1.798470         0.037678
 C         3.151435         1.285438         1.136183
 O         3.440483         0.028602         0.501672
 C         2.681742        -0.066638        -0.718526
 C         2.589281         1.362433        -1.469503
 O         1.152914         0.902855        -1.850990
 C         1.261042         0.497005        -0.447244
 C         0.187342        -0.224271         0.203189
 H         0.722926         3.154486         1.226673
 H         1.765511         4.146447         0.024485
 H         0.328464         3.013399        -0.426358
 H         4.094716         1.868921         1.121789
 H         2.861780         1.111661         2.144400
 H         3.009364        -1.121616        -1.242435
 H         3.173622         1.916048        -2.258682
 H         0.428276        -0.695957         1.200910
 H        -0.812430         0.269616         0.210118
 H         0.096878        -1.195381        -0.393864
