19
Iteration:  3948charge 0 multiplicity 1
 C         1.274396         3.035395         0.276812
 C         1.905958         1.751670         0.052342
 C         3.174722         1.306407         1.001660
 O         3.422131         0.024824         0.575700
 C         2.761067        -0.002210        -0.673034
 C         2.513527         1.320645        -1.389799
 O         1.151482         1.015773        -1.830231
 C         1.276848         0.454737        -0.485705
 C         0.159286        -0.320186         0.142223
 H         0.460154         3.021801         1.106568
 H         2.100006         3.655439         0.382888
 H         0.820779         3.324633        -0.657071
 H         3.949287         1.945095         0.619780
 H         3.207208         1.411565         2.081303
 H         3.021253        -0.770771        -1.335078
 H         3.026053         1.965366        -2.192066
 H         0.371769        -0.711081         1.121448
 H        -0.717192         0.371616         0.205754
 H        -0.132701        -1.240673        -0.529937
