19
Iteration:  3284
 C         1.194304         3.076570         0.205639
 C         2.014278         1.776013         0.058268
 C         3.213277         1.318691         1.005346
 O         3.430841        -0.068683         0.557449
 C         2.627992        -0.050886        -0.677442
 C         2.499960         1.398623        -1.346718
 O         1.184512         0.953999        -1.860476
 C         1.263524         0.483878        -0.489966
 C         0.222795        -0.304861         0.159430
 H         0.858946         3.249193         1.208289
 H         1.890353         4.015958         0.060799
 H         0.410023         3.177829        -0.450165
 H         4.091229         1.988972         1.110022
 H         2.729874         1.306435         1.998122
 H         2.916575        -0.882367        -1.390231
 H         3.118396         2.089991        -1.878502
 H         0.532755        -0.268437         1.211923
 H        -0.723484         0.201014         0.112515
 H        -0.027046        -1.246875        -0.290917
