19
Iteration:  1312charge 0 multiplicity 1
 C         1.325153         3.096587         0.158426
 C         1.965824         1.780078         0.011704
 C         2.938602         1.240822         1.080646
 O         3.647132         0.112010         0.449106
 C         2.777951        -0.004536        -0.732800
 C         2.500717         1.385903        -1.380823
 O         1.089233         0.801261        -1.805819
 C         1.336041         0.439099        -0.429317
 C         0.103880        -0.223729         0.266329
 H         0.995646         3.400074         1.179083
 H         2.174866         3.871789         0.035355
 H         0.368808         3.125723        -0.448411
 H         3.665927         1.889616         1.561619
 H         2.234512         0.791616         1.853746
 H         3.015504        -0.920262        -1.290051
 H         3.033554         1.999696        -2.203814
 H         0.406215        -0.765391         1.225092
 H        -0.603896         0.602234         0.342717
 H        -0.366224        -1.000131        -0.421633
