19
Iteration:  1280charge 0 multiplicity 1
 C         1.397298         3.083907         0.244146
 C         1.942664         1.733387         0.115905
 C         3.044722         1.368471         1.034068
 O         3.694853         0.217471         0.387445
 C         2.766615        -0.077645        -0.682820
 C         2.543041         1.345011        -1.356172
 O         1.104330         0.847824        -1.809662
 C         1.200209         0.383987        -0.418933
 C        -0.032453        -0.326022         0.145115
 H         1.127065         3.313980         1.290036
 H         2.210896         3.774877        -0.201170
 H         0.589382         3.330863        -0.451223
 H         3.651632         2.164552         1.361027
 H         2.456804         0.960983         1.974669
 H         3.003192        -1.021444        -1.233662
 H         3.168346         1.829308        -2.181057
 H         0.027974        -0.321927         1.298577
 H        -0.937606         0.300211         0.034324
 H        -0.344244        -1.329062        -0.294774
