19
Iteration:  1542
 C         1.229767         3.072751         0.218366
 C         1.951427         1.776433        -0.004654
 C         3.085695         1.337262         1.023414
 O         3.566458         0.083292         0.457554
 C         2.818208        -0.025487        -0.706730
 C         2.490013         1.333918        -1.414087
 O         1.192416         0.787344        -1.794388
 C         1.297294         0.410778        -0.370427
 C         0.058813        -0.195343         0.203044
 H         0.326959         2.937634         0.819077
 H         1.882339         3.693126         0.898984
 H         0.887308         3.502515        -0.682662
 H         3.928080         2.137933         1.120818
 H         2.649390         1.230139         1.997191
 H         3.027246        -0.879664        -1.362342
 H         3.113202         1.980673        -2.137021
 H         0.138609        -0.871447         1.130746
 H        -0.592165         0.600949         0.580778
 H        -0.591342        -0.613492        -0.546643
