19
Iteration:  1100charge 0 multiplicity 1
 C         1.242040         3.049341         0.291850
 C         2.130344         1.843281         0.081722
 C         3.286053         1.458593         0.924887
 O         3.371018         0.070157         0.559163
 C         2.659284        -0.073712        -0.691425
 C         2.455158         1.281946        -1.400840
 O         1.119928         0.923230        -1.841473
 C         1.287076         0.495746        -0.345486
 C         0.153475        -0.393326         0.081784
 H         0.679410         3.007512         1.327252
 H         1.796080         3.976477         0.182282
 H         0.482633         3.015883        -0.512399
 H         4.140276         2.153289         0.617498
 H         3.155052         1.390545         2.026161
 H         2.781069        -1.135903        -1.121891
 H         3.091413         1.687749        -2.140277
 H         0.489342        -1.064285         0.883716
 H        -0.666054         0.220483         0.515185
 H        -0.289553        -0.904616        -0.747395
