19
Iteration:  2907charge 0 multiplicity 1
 C         1.275745         3.139435         0.271755
 C         1.984350         1.794200         0.073716
 C         3.135751         1.358109         1.009409
 O         3.462344         0.086411         0.439967
 C         2.716093        -0.045265        -0.660126
 C         2.551965         1.260977        -1.419990
 O         1.127892         0.895694        -1.798723
 C         1.308434         0.451275        -0.398872
 C         0.121560        -0.361659         0.154850
 H         0.675234         3.135714         1.119801
 H         1.933271         3.952743         0.317439
 H         0.645878         3.496791        -0.622580
 H         3.926029         2.062696         1.004088
 H         2.899217         1.238016         2.055605
 H         2.946386        -0.990346        -1.281751
 H         3.246505         1.836500        -2.133552
 H        -0.021884        -0.463363         1.239432
 H        -0.731466         0.296473        -0.080164
 H        -0.011216        -1.266892        -0.426328
