19
Iteration:  3341
 C         1.229150         3.059153         0.279209
 C         2.011129         1.757967         0.076451
 C         3.047602         1.217481         1.084034
 O         3.630851         0.064107         0.414430
 C         2.794571        -0.034351        -0.647221
 C         2.531470         1.373490        -1.434403
 O         1.157844         0.833827        -1.888419
 C         1.231727         0.496608        -0.448816
 C         0.012612        -0.167501         0.236185
 H         0.404977         3.041539         1.035267
 H         1.967647         3.878536         0.389171
 H         0.777279         3.249981        -0.713685
 H         3.841800         1.987319         1.236891
 H         2.549886         1.001705         1.998168
 H         3.197001        -0.777586        -1.216504
 H         3.121593         2.017224        -2.090243
 H         0.223851        -0.734899         1.086652
 H        -0.583004         0.676795         0.458236
 H        -0.335428        -0.966632        -0.529586
