19
Iteration:  2816charge 0 multiplicity 1
 C         1.247791         2.991254         0.181957
 C         2.007702         1.699455        -0.000653
 C         3.035742         1.256691         1.123149
 O         3.605294         0.156852         0.458631
 C         2.753269         0.014841        -0.743451
 C         2.498428         1.306291        -1.425269
 O         1.104843         0.873072        -1.821200
 C         1.293855         0.459637        -0.377204
 C         0.119266        -0.160904         0.237663
 H         0.711418         2.905743         1.222047
 H         1.963399         3.783646         0.106705
 H         0.560083         3.219555        -0.576249
 H         3.708867         1.975447         1.482064
 H         2.521666         0.948815         2.070799
 H         3.030729        -0.884590        -1.530358
 H         3.267207         1.696645        -2.112633
 H         0.330830        -0.762945         1.105371
 H        -0.383831         0.757391         0.459470
 H        -0.463081        -0.745225        -0.563001
