19
Iteration:   196charge 0 multiplicity 1
 C         1.387414         3.114384         0.207909
 C         1.955772         1.751713         0.027605
 C         2.985188         1.298935         1.076930
 O         3.735314         0.227782         0.389314
 C         2.760453        -0.051122        -0.643421
 C         2.439874         1.300777        -1.354245
 O         1.161271         0.864099        -1.784997
 C         1.215605         0.449340        -0.366761
 C        -0.003415        -0.349829         0.105510
 H         0.609596         3.256481         1.005875
 H         2.267725         3.768848         0.444204
 H         0.937227         3.484896        -0.701664
 H         3.702525         2.133675         1.448979
 H         2.420145         0.749249         1.936752
 H         2.877446        -0.852877        -1.264998
 H         3.027735         1.814930        -2.028571
 H         0.243904        -0.777553         1.180069
 H        -1.023464         0.126670         0.047191
 H        -0.211210        -1.160938        -0.561221
