19
Iteration:  4818
 C         1.215496         3.065676         0.197774
 C         1.919919         1.664466         0.085470
 C         3.095184         1.276757         1.088251
 O         3.574402         0.064346         0.386334
 C         2.764847         0.045534        -0.665749
 C         2.519550         1.320526        -1.335287
 O         1.268321         1.032196        -1.885801
 C         1.252731         0.367982        -0.434458
 C         0.056422        -0.260205         0.216723
 H         0.538646         3.101832         1.023571
 H         2.095131         3.783068         0.377935
 H         0.549638         3.159245        -0.660947
 H         3.734465         2.130668         1.126072
 H         2.604269         0.995484         2.108163
 H         2.953959        -0.894853        -1.340335
 H         3.236987         1.770310        -1.890084
 H         0.313880        -0.487812         1.186599
 H        -0.754520         0.466217         0.300069
 H        -0.557954        -1.156055        -0.259051
