19
Iteration:  1596charge 0 multiplicity 1
 C         1.289904         3.099070         0.160752
 C         1.995300         1.756151         0.039675
 C         2.992642         1.316379         1.097283
 O         3.642347         0.138519         0.412206
 C         2.754307        -0.069578        -0.685574
 C         2.503822         1.297697        -1.378185
 O         1.160402         0.896684        -1.802969
 C         1.254855         0.431754        -0.381262
 C         0.077560        -0.238861         0.220132
 H         0.668771         3.180606         1.012218
 H         1.945367         4.018119         0.026296
 H         0.651671         2.985460        -0.748024
 H         3.762374         2.110172         1.456216
 H         2.418713         1.003032         1.916416
 H         2.932363        -0.985331        -1.238183
 H         3.296712         1.751821        -2.165062
 H         0.247459        -1.189532         0.872849
 H        -0.687950         0.435064         0.644347
 H        -0.413659        -0.800753        -0.578439
