19
Iteration:  3511
 C         1.251583         3.010686         0.253354
 C         1.998705         1.776538         0.034167
 C         3.104218         1.355857         1.047290
 O         3.593361         0.038672         0.410270
 C         2.774805         0.011118        -0.707334
 C         2.512621         1.337494        -1.343499
 O         1.159987         0.887693        -1.801060
 C         1.283143         0.385826        -0.439630
 C        -0.008213        -0.209249         0.168676
 H         0.587012         2.895102         1.161224
 H         1.923352         3.877210         0.670725
 H         0.777996         3.393155        -0.703425
 H         3.889853         2.016382         1.229679
 H         2.603521         1.210018         1.966693
 H         3.039686        -0.908794        -1.178288
 H         3.151305         1.740715        -2.071439
 H         0.109959        -0.666889         1.228133
 H        -0.714958         0.683910         0.124016
 H        -0.339330        -0.906075        -0.515725
