19
Iteration:  1595
 C         1.295551         3.099016         0.163112
 C         1.992924         1.754794         0.045849
 C         2.987712         1.312516         1.102385
 O         3.644061         0.147758         0.402023
 C         2.758847        -0.063796        -0.686393
 C         2.504315         1.291521        -1.389101
 O         1.168836         0.896858        -1.799802
 C         1.250249         0.427464        -0.374515
 C         0.070300        -0.232871         0.224602
 H         0.670338         3.193394         0.985568
 H         1.949920         3.997728         0.069894
 H         0.631925         2.964528        -0.785088
 H         3.722092         2.111904         1.451210
 H         2.416655         0.996624         1.944422
 H         2.934864        -1.021915        -1.255904
 H         3.312668         1.726775        -2.179606
 H         0.256208        -1.178664         0.869445
 H        -0.715955         0.403374         0.657825
 H        -0.416766        -0.787235        -0.604093
