19
Iteration:  2936
 C         1.355633         3.058276         0.198454
 C         1.950495         1.743355         0.018417
 C         3.071111         1.268048         0.999604
 O         3.676192         0.159591         0.443171
 C         2.764921        -0.026767        -0.616878
 C         2.519545         1.337557        -1.336042
 O         1.133372         0.888344        -1.831284
 C         1.171914         0.443992        -0.467532
 C        -0.025282        -0.288177         0.210419
 H         0.669174         3.096756         1.223391
 H         2.174177         3.818325         0.300417
 H         0.708106         3.396702        -0.620743
 H         3.764249         2.134734         1.237275
 H         2.675438         1.078132         2.071767
 H         3.090275        -0.939332        -1.298007
 H         3.216125         1.982631        -1.948662
 H         0.251664        -0.602720         1.227630
 H        -0.904304         0.344795         0.097392
 H        -0.215647        -1.332256        -0.342904
