19
Iteration:  3927
 C         1.227690         3.049687         0.277961
 C         2.068409         1.805623         0.016879
 C         3.076636         1.363942         1.038572
 O         3.537813         0.020248         0.418633
 C         2.687253        -0.101755        -0.726429
 C         2.558036         1.377120        -1.340945
 O         1.196378         0.941336        -1.797540
 C         1.311925         0.409200        -0.426479
 C         0.049281        -0.243804         0.167959
 H         0.454315         2.882796         1.210799
 H         1.758628         4.011275         0.314653
 H         0.534277         3.140536        -0.569524
 H         3.889861         2.013899         1.225830
 H         2.599138         1.230384         1.999473
 H         2.917936        -0.953903        -1.310228
 H         3.310024         1.993810        -1.970997
 H         0.162541        -0.718487         1.103994
 H        -0.792555         0.459340         0.265218
 H        -0.244884        -1.185558        -0.480637
