19
Iteration:   563charge 0 multiplicity 1
 C         1.283524         3.068767         0.264344
 C         1.970087         1.707875         0.077174
 C         3.002935         1.232376         1.164301
 O         3.517310        -0.011465         0.412977
 C         2.781505         0.026672        -0.841674
 C         2.515690         1.365780        -1.421332
 O         1.096676         0.999459        -1.862967
 C         1.305158         0.448235        -0.473521
 C         0.199187        -0.219806         0.314315
 H         0.663491         3.191467         1.171778
 H         2.035943         3.806710         0.221351
 H         0.628392         3.291745        -0.611516
 H         3.914236         1.729612         1.485617
 H         2.442466         1.010750         2.044267
 H         3.023867        -0.799634        -1.429193
 H         3.073615         1.900594        -2.199612
 H         0.456299        -0.157357         1.336253
 H        -0.742738         0.192860        -0.060934
 H         0.062137        -1.353033         0.052217
