19
Iteration:  2113
 C         1.176609         3.039120         0.168212
 C         1.980510         1.698755         0.017470
 C         3.026514         1.259621         1.022759
 O         3.645252         0.111152         0.405596
 C         2.833719        -0.035319        -0.705712
 C         2.564422         1.292702        -1.346498
 O         1.207257         0.935963        -1.855210
 C         1.220486         0.456630        -0.363419
 C         0.044171        -0.171236         0.268398
 H         0.657259         2.914968         1.185566
 H         1.550770         4.167170         0.198582
 H         0.443079         2.981733        -0.526795
 H         3.668151         2.077129         1.191287
 H         2.634152         0.883328         1.999725
 H         2.756057        -0.896281        -1.238017
 H         3.308162         1.772214        -1.914666
 H         0.272947        -0.305304         1.307618
 H        -0.844833         0.574873         0.227377
 H        -0.152109        -1.226577        -0.159527
