19
Iteration:  1321charge 0 multiplicity 1
 C         1.256973         3.046876         0.212184
 C         2.044011         1.795192        -0.004733
 C         2.954112         1.274049         1.073283
 O         3.594492         0.088849         0.445020
 C         2.718868        -0.023096        -0.695390
 C         2.517598         1.357962        -1.395080
 O         1.168687         0.852907        -1.801377
 C         1.247056         0.418132        -0.489996
 C         0.158997        -0.186339         0.302708
 H         0.812724         3.179486         1.191849
 H         1.893082         3.895449        -0.190919
 H         0.538766         3.158507        -0.772617
 H         3.874335         1.851742         1.503511
 H         2.363090         1.041019         1.911025
 H         2.828696        -0.828618        -1.338143
 H         3.098121         2.010992        -2.192251
 H         0.547617        -0.788137         1.097708
 H        -0.682659         0.394213         0.692590
 H        -0.172092        -0.997098        -0.418001
