19
Iteration:  1421charge 0 multiplicity 1
 C         1.368104         3.042061         0.246480
 C         1.966084         1.722986         0.003184
 C         3.029054         1.294659         1.104253
 O         3.705678         0.269802         0.379796
 C         2.693619        -0.093061        -0.627065
 C         2.554433         1.314734        -1.381050
 O         1.098892         0.846652        -1.852955
 C         1.193725         0.421336        -0.393892
 C         0.028776        -0.242313         0.158967
 H         0.842869         3.043935         1.262410
 H         2.290759         3.785739         0.242306
 H         0.588789         3.322629        -0.556915
 H         3.697825         2.217639         1.406720
 H         2.486981         0.915751         1.995326
 H         3.052168        -1.053457        -1.159029
 H         3.382369         1.744464        -2.095801
 H         0.034829        -0.407733         1.278408
 H        -0.880464         0.336468         0.100555
 H        -0.290963        -1.111076        -0.420930
