19
Iteration:  3488charge 0 multiplicity 1
 C         1.274542         3.101819         0.283916
 C         2.010641         1.787640         0.062682
 C         3.008639         1.194889         1.060975
 O         3.635387         0.138374         0.419764
 C         2.721862        -0.087509        -0.709338
 C         2.531360         1.305804        -1.435424
 O         1.141680         0.891129        -1.836512
 C         1.283839         0.512266        -0.352798
 C         0.047994        -0.252152         0.138419
 H         0.577705         3.241311         1.149404
 H         1.977193         3.964530         0.378168
 H         0.861587         3.259710        -0.793816
 H         3.708634         1.923316         1.389609
 H         2.427854         0.941752         1.918043
 H         2.942634        -1.052943        -1.138318
 H         3.068279         1.940408        -2.118437
 H         0.440288        -0.546764         1.212008
 H        -0.845594         0.421658         0.272514
 H        -0.054039        -1.138124        -0.367469
