19
Iteration:  3344
 C         1.225752         3.066819         0.279964
 C         1.998626         1.753549         0.076561
 C         3.072813         1.227476         1.075583
 O         3.629272         0.063117         0.425615
 C         2.792445        -0.010321        -0.673107
 C         2.557294         1.377914        -1.433643
 O         1.161923         0.817903        -1.892942
 C         1.212691         0.482715        -0.418798
 C         0.003987        -0.166533         0.223980
 H         0.400209         3.060833         1.079151
 H         1.946053         3.821599         0.399592
 H         0.783548         3.308293        -0.801547
 H         3.830736         1.967383         1.333771
 H         2.584940         0.901250         1.983264
 H         3.225444        -0.874108        -1.276063
 H         3.092802         2.110890        -2.146465
 H         0.118350        -0.797993         1.125679
 H        -0.588023         0.730172         0.502417
 H        -0.331850        -0.928706        -0.473632
