19
Iteration:  1887
 C         1.210010         3.001055         0.256814
 C         2.013470         1.753882         0.071595
 C         3.120599         1.368868         0.993117
 O         3.621464         0.170198         0.409843
 C         2.754972        -0.087907        -0.645206
 C         2.565187         1.256775        -1.346831
 O         1.211637         0.933220        -1.821628
 C         1.157715         0.408100        -0.467579
 C        -0.002706        -0.248955         0.191922
 H         0.278825         2.956487         0.834677
 H         1.822766         3.794921         0.510421
 H         0.868811         3.278425        -0.778569
 H         3.963506         2.075630         1.113771
 H         2.682278         1.240456         1.983661
 H         2.969487        -1.031843        -1.148589
 H         3.201074         1.812955        -1.963130
 H         0.417342        -0.268335         1.271070
 H        -0.884668         0.441055         0.146775
 H        -0.393791        -1.196200        -0.211494
