19
Iteration:  2927charge 0 multiplicity 1
 C         1.358305         3.060180         0.224382
 C         1.950261         1.702455         0.031771
 C         3.069005         1.343240         1.027809
 O         3.693738         0.117143         0.456280
 C         2.733565        -0.063793        -0.648284
 C         2.441201         1.410571        -1.323791
 O         1.171879         0.873586        -1.864180
 C         1.166944         0.484376        -0.391025
 C         0.027104        -0.293754         0.152884
 H         0.662257         3.171128         1.178066
 H         2.125533         3.768313         0.310315
 H         0.773110         3.362058        -0.713645
 H         3.857396         2.065787         0.992904
 H         2.622095         1.120719         2.043094
 H         2.878090        -1.102985        -1.271538
 H         3.190058         1.726261        -2.092526
 H         0.192789        -0.361976         1.177811
 H        -0.943747         0.161611         0.249704
 H        -0.079830        -1.300025        -0.414579
