19
Iteration:  4737charge 0 multiplicity 1
 C         1.242603         3.066929         0.275024
 C         1.938544         1.660767         0.060506
 C         3.072051         1.321353         1.007437
 O         3.529268         0.086299         0.486780
 C         2.700654        -0.081647        -0.752413
 C         2.568378         1.395310        -1.305587
 O         1.282856         0.959167        -1.845115
 C         1.182848         0.437746        -0.452550
 C         0.081679        -0.287678         0.148117
 H         0.779122         2.981186         1.328734
 H         2.040913         3.802173         0.278880
 H         0.572986         3.398102        -0.632947
 H         3.852331         2.147719         0.983031
 H         2.719585         1.366575         2.045717
 H         2.902104        -0.945958        -1.337120
 H         3.380040         1.953775        -1.937368
 H         0.438263        -0.801765         1.157277
 H        -0.729260         0.458432         0.355271
 H        -0.310312        -1.063227        -0.457901
