19
Iteration:  2105
 C         1.167510         2.989561         0.187533
 C         2.004630         1.743570        -0.013227
 C         3.029484         1.261352         0.999917
 O         3.625383         0.100783         0.430256
 C         2.739882        -0.020447        -0.669817
 C         2.576149         1.318962        -1.338759
 O         1.226033         0.945701        -1.874943
 C         1.267012         0.425019        -0.420908
 C         0.055831        -0.176358         0.311017
 H         0.662084         2.891595         1.212859
 H         1.650857         3.924486         0.268714
 H         0.332753         2.946239        -0.548241
 H         3.831500         2.003792         1.089462
 H         2.653171         1.078864         1.959537
 H         2.959300        -0.911873        -1.261809
 H         3.205687         1.899860        -1.955739
 H         0.125887        -0.290993         1.351986
 H        -0.776509         0.471711         0.229226
 H        -0.263053        -1.076956        -0.088065
