19
Iteration:  4168charge 0 multiplicity 1
 C         1.303358         3.121307         0.195295
 C         2.003554         1.699511         0.073173
 C         2.965379         1.209997         1.062798
 O         3.651660         0.155288         0.514879
 C         2.683263        -0.078487        -0.730995
 C         2.502677         1.326940        -1.451375
 O         1.131607         1.034556        -1.748412
 C         1.244171         0.492627        -0.428068
 C         0.166214        -0.333248         0.140823
 H         0.789935         3.305215         1.213381
 H         2.039638         3.830142        -0.012182
 H         0.567304         3.062689        -0.556127
 H         3.774424         1.834295         1.563284
 H         2.346583         0.822752         1.947948
 H         2.777622        -1.081727        -1.264694
 H         3.191656         1.681027        -2.321878
 H         0.383573        -0.744288         1.088576
 H        -0.662567         0.331246         0.186257
 H        -0.079797        -1.152740        -0.625394
