19
Iteration:  1049
 C         1.248465         3.041792         0.246333
 C         1.973839         1.712419         0.109126
 C         3.029863         1.269299         1.078425
 O         3.550979         0.129876         0.333090
 C         2.661462        -0.025292        -0.700021
 C         2.547817         1.346121        -1.374638
 O         1.204156         0.911554        -1.894034
 C         1.272858         0.411230        -0.457781
 C         0.164425        -0.218940         0.323886
 H         0.617902         3.028137         1.041663
 H         2.058172         3.772668         0.316251
 H         0.655162         3.357295        -0.685026
 H         3.797320         2.013462         1.168271
 H         2.615454         0.981471         2.145285
 H         2.887859        -0.816044        -1.238090
 H         3.095454         1.675921        -2.349361
 H         0.504861        -0.047692         1.330962
 H        -0.814556         0.406301         0.293350
 H        -0.201537        -1.294622         0.059344
