19
Iteration:  1531
 C         1.150375         3.035905         0.263394
 C         2.010160         1.723810        -0.003696
 C         3.172251         1.389041         0.994045
 O         3.441039         0.061684         0.508997
 C         2.744849        -0.015461        -0.694984
 C         2.545019         1.366468        -1.440103
 O         1.206374         0.831263        -1.816548
 C         1.284809         0.438439        -0.431924
 C         0.082651        -0.219447         0.234456
 H         0.261823         2.870772         0.884710
 H         1.845443         3.878793         0.629410
 H         0.892294         3.568857        -0.604831
 H         4.200708         1.985453         0.919308
 H         2.927248         1.208772         2.022605
 H         2.904373        -1.061685        -0.974715
 H         3.132542         1.963106        -2.269502
 H         0.483246        -0.872514         1.120349
 H        -0.553561         0.606984         0.504381
 H        -0.257042        -0.884931        -0.547085
