19
Iteration:  2587
 C         1.242944         3.072600         0.219328
 C         1.968549         1.772503        -0.009311
 C         3.124189         1.378186         1.013534
 O         3.471778         0.001239         0.532264
 C         2.785903        -0.079653        -0.751901
 C         2.547668         1.323012        -1.393361
 O         1.131180         0.983566        -1.804257
 C         1.251545         0.420324        -0.434975
 C         0.152788        -0.281817         0.228380
 H         0.688171         2.977923         1.225189
 H         1.965942         3.875419         0.231372
 H         0.432542         3.451170        -0.487616
 H         3.958673         2.010295         0.904810
 H         2.851444         1.474165         2.091791
 H         2.979333        -1.161181        -1.171753
 H         3.082326         1.962796        -2.085880
 H         0.426759        -0.912571         1.064197
 H        -0.596424         0.435807         0.396835
 H        -0.240729        -0.954650        -0.458950
