19
Iteration:   276
 C         1.149216         2.962910         0.279185
 C         2.029369         1.753757         0.032261
 C         3.029856         1.376325         1.014599
 O         3.464379         0.026988         0.477122
 C         2.691327        -0.103934        -0.723894
 C         2.568526         1.305247        -1.409253
 O         1.267069         1.049982        -1.939048
 C         1.289250         0.476375        -0.465185
 C         0.159764        -0.232735         0.337327
 H         0.782326         2.853248         1.286151
 H         1.497198         4.034219         0.226825
 H         0.311495         2.814485        -0.363732
 H         3.996993         2.052801         1.041580
 H         2.665729         1.265935         1.999690
 H         3.024926        -1.101538        -1.257242
 H         3.336544         1.810990        -2.077099
 H         0.544775        -0.689721         1.157792
 H        -0.524171         0.498439         0.724953
 H        -0.265107        -1.041786        -0.317988
