19
Iteration:  3459
 C         1.330390         3.079019         0.208243
 C         2.022652         1.753832        -0.010374
 C         2.994523         1.266513         1.085818
 O         3.511297         0.086392         0.475441
 C         2.688931        -0.053354        -0.766314
 C         2.549125         1.376779        -1.371391
 O         1.166889         1.010778        -1.840085
 C         1.277803         0.415807        -0.428632
 C         0.079825        -0.364495         0.235369
 H         0.922104         3.074193         1.199398
 H         2.135213         3.888146         0.020331
 H         0.576111         3.328413        -0.439375
 H         3.811853         1.988193         1.204373
 H         2.485231         1.122313         2.089329
 H         3.033932        -0.935494        -1.296836
 H         3.146482         2.013606        -2.001070
 H         0.495558        -0.490144         1.208142
 H        -0.722741         0.351622         0.341553
 H         0.023305        -1.403665        -0.110662
