19
Iteration:  4978
 C         1.254225         3.022233         0.276877
 C         2.005395         1.745848         0.126303
 C         3.048089         1.307446         1.081666
 O         3.577519         0.115059         0.398148
 C         2.762098        -0.038428        -0.804483
 C         2.597196         1.310214        -1.364618
 O         1.186643         0.900758        -1.831875
 C         1.319313         0.414437        -0.425626
 C        -0.007107        -0.215712         0.186831
 H         0.332439         3.007806         0.870577
 H         1.766762         3.899319         0.521435
 H         0.660615         3.260112        -0.657284
 H         3.726060         2.164601         1.429511
 H         2.589913         0.957224         2.036177
 H         2.800384        -0.925594        -1.476879
 H         3.246560         2.024203        -2.015726
 H         0.298530        -0.756399         1.118986
 H        -0.715831         0.573497         0.473593
 H        -0.591630        -0.833420        -0.468987
