19
Iteration:  1180charge 0 multiplicity 1
 C         1.165108         3.096809         0.239448
 C         2.020700         1.796624        -0.054151
 C         2.974056         1.261363         1.043545
 O         3.609986         0.094786         0.378448
 C         2.788967        -0.106544        -0.715351
 C         2.514368         1.281441        -1.391158
 O         1.171997         0.894093        -1.799336
 C         1.266622         0.408613        -0.455077
 C         0.176295        -0.124396         0.332623
 H         0.594578         3.112251         1.142361
 H         1.866233         3.967953         0.291480
 H         0.473785         3.296893        -0.686064
 H         3.628394         1.906048         1.584967
 H         2.260023         0.841709         1.895158
 H         3.024674        -0.903507        -1.299398
 H         3.242428         1.922951        -2.042829
 H         0.557458        -0.725401         1.175523
 H        -0.621510         0.593251         0.712533
 H        -0.324139        -1.021985        -0.227755
