19
Iteration:   464
 C         1.244417         3.054903         0.259805
 C         2.042319         1.732101         0.137754
 C         3.074306         1.196888         1.135956
 O         3.662529         0.132323         0.351567
 C         2.845258         0.027841        -0.755738
 C         2.447659         1.323114        -1.373490
 O         1.136950         0.852096        -1.753208
 C         1.250416         0.385054        -0.451368
 C        -0.023988        -0.129721         0.137106
 H         0.670213         3.329997         1.114733
 H         1.931707         3.829365         0.089420
 H         0.622611         3.042851        -0.705285
 H         3.807368         2.050055         1.521875
 H         2.679663         0.788967         2.004655
 H         3.136200        -0.723582        -1.362613
 H         2.932270         1.910990        -2.195621
 H         0.130277        -0.965395         0.757162
 H        -0.581864         0.645108         0.770610
 H        -0.597646        -0.564637        -0.828638
