19
Iteration:     6
 C         1.230096         3.040338         0.200430
 C         1.994432         1.775658         0.036775
 C         3.021255         1.371384         1.034628
 O         3.555889         0.111686         0.459495
 C         2.753785        -0.012599        -0.662817
 C         2.518435         1.309344        -1.368118
 O         1.143595         0.889866        -1.815648
 C         1.340134         0.426973        -0.415573
 C         0.110322        -0.314922         0.190540
 H         0.615881         3.045190         1.115657
 H         1.969559         3.876100         0.239426
 H         0.570624         3.275364        -0.664451
 H         3.874247         2.048630         1.244802
 H         2.572341         1.099908         2.060566
 H         3.073820        -0.857815        -1.299600
 H         3.242045         1.789502        -2.084560
 H         0.334464        -0.669829         1.219930
 H        -0.698104         0.451326         0.094495
 H        -0.286326        -1.058066        -0.598325
