19
Iteration:   788charge 0 multiplicity 1
 C         1.322357         2.973117         0.420809
 C         2.029028         1.779993         0.014896
 C         3.182275         1.433261         0.870367
 O         3.353380        -0.002484         0.576766
 C         2.730177        -0.000678        -0.729265
 C         2.514553         1.362798        -1.420470
 O         1.139700         0.923015        -1.820545
 C         1.293062         0.413889        -0.409106
 C         0.115151        -0.279663         0.119114
 H         1.012827         2.712253         1.348565
 H         2.002527         3.859127         0.549152
 H         0.358781         3.288834        -0.157894
 H         4.213867         1.981945         0.597606
 H         3.078724         1.527394         1.920251
 H         2.988834        -0.792249        -1.314971
 H         2.866986         2.030169        -2.311607
 H         0.140128        -0.185746         1.139194
 H        -0.866403         0.231512        -0.137439
 H         0.149194        -1.398071        -0.306970
