19
Iteration:  1238
 C         1.136694         3.098511         0.324004
 C         2.057332         1.816039        -0.004575
 C         3.246401         1.415789         0.922007
 O         3.409828        -0.012701         0.568595
 C         2.695712        -0.014722        -0.705043
 C         2.589033         1.268273        -1.498664
 O         1.112189         0.951266        -1.746015
 C         1.337682         0.406260        -0.406184
 C         0.145465        -0.333757         0.169718
 H         0.378513         3.013001         1.143653
 H         1.735355         4.061490         0.323665
 H         0.587201         3.240261        -0.546846
 H         4.105825         1.999900         0.587676
 H         3.076102         1.518945         2.087395
 H         2.759892        -1.103749        -1.222065
 H         3.238279         1.849768        -2.134290
 H         0.093276        -0.177316         1.337708
 H        -0.728094         0.220915        -0.224316
 H        -0.018965        -1.340631        -0.304515
