19
Iteration:  2230charge 0 multiplicity 1
 C         1.202939         3.032581         0.242551
 C         2.006808         1.769392        -0.041374
 C         3.101107         1.417715         1.080402
 O         3.502092         0.012238         0.523984
 C         2.707614        -0.105387        -0.718732
 C         2.484119         1.313758        -1.395256
 O         1.132655         0.975382        -1.846486
 C         1.311606         0.382274        -0.458457
 C         0.220720        -0.207868         0.245831
 H         0.649700         3.053706         1.154283
 H         1.853428         4.009659         0.132919
 H         0.557735         3.111891        -0.708980
 H         4.020361         2.035998         1.157129
 H         2.656426         1.165947         2.076573
 H         3.035012        -0.968968        -1.255335
 H         3.034863         1.955285        -2.120124
 H         0.471770        -0.722733         1.169864
 H        -0.567197         0.520932         0.358320
 H        -0.207805        -1.015192        -0.445148
