19
Iteration:  4822
 C         1.271707         3.045425         0.195625
 C         1.865574         1.673251         0.104311
 C         3.071503         1.279491         1.120030
 O         3.582983         0.064089         0.364757
 C         2.754526         0.063487        -0.680460
 C         2.498854         1.324767        -1.323628
 O         1.258847         1.006511        -1.880522
 C         1.265136         0.375487        -0.436090
 C         0.051135        -0.263512         0.205018
 H         0.565713         3.155114         1.042908
 H         2.006419         3.818054         0.343214
 H         0.718228         3.164324        -0.712096
 H         3.814318         2.117375         1.096057
 H         2.671116         0.995290         2.063713
 H         3.088611        -0.798473        -1.212138
 H         3.311891         1.775510        -2.015978
 H         0.187729        -0.576012         1.296756
 H        -0.734401         0.518145         0.232355
 H        -0.356221        -1.099872        -0.286386
