19
Iteration:  1722
 C         1.264318         3.085277         0.147962
 C         1.910490         1.669402         0.081214
 C         3.003357         1.238270         1.105405
 O         3.769779         0.227878         0.361457
 C         2.914896        -0.020993        -0.691495
 C         2.545903         1.211872        -1.346718
 O         1.154837         0.862700        -1.848932
 C         1.133837         0.476595        -0.373848
 C        -0.050422        -0.173546         0.256047
 H         0.300888         2.934096         0.849090
 H         2.009621         3.733792         0.528310
 H         0.891880         3.546466        -0.858703
 H         3.689575         2.072774         1.378078
 H         2.737895         0.708581         2.156951
 H         3.345097        -0.940289        -1.411317
 H         3.071990         1.714691        -2.071831
 H        -0.101324        -0.393714         1.310077
 H        -0.901873         0.573399         0.058345
 H        -0.416470        -1.060192        -0.465299
