19
Iteration:  4937
 C         1.178881         2.968345         0.245944
 C         2.080831         1.766179         0.016994
 C         3.047080         1.303857         1.061533
 O         3.559450         0.023751         0.519727
 C         2.691082        -0.050682        -0.791146
 C         2.592014         1.393826        -1.399052
 O         1.161393         0.969443        -1.791158
 C         1.234757         0.448373        -0.439008
 C         0.132844        -0.182753         0.189226
 H         0.632977         2.867772         1.204824
 H         1.721927         3.956073         0.355554
 H         0.422455         2.861122        -0.606062
 H         3.986585         1.875312         1.163131
 H         2.481573         1.192851         1.984635
 H         3.011954        -0.989423        -1.346489
 H         3.226325         1.906875        -2.038501
 H         0.497195        -0.684772         1.011948
 H        -0.680681         0.507468         0.455783
 H        -0.240071        -0.967653        -0.636228
