19
Iteration:  3762charge 0 multiplicity 1
 C         1.297931         3.050054         0.225202
 C         1.992577         1.781614         0.048848
 C         3.034076         1.185739         1.127692
 O         3.626978         0.122831         0.439035
 C         2.738440        -0.042721        -0.776202
 C         2.496456         1.379342        -1.386548
 O         1.198362         0.960192        -1.862859
 C         1.218083         0.433667        -0.404198
 C         0.025391        -0.291716         0.216389
 H         0.812737         3.351719         1.240294
 H         2.124596         3.732225         0.108107
 H         0.531545         3.373215        -0.555830
 H         3.807655         1.930846         1.446650
 H         2.384323         0.924917         2.027376
 H         3.012516        -1.000074        -1.360097
 H         3.269737         1.906154        -2.009852
 H         0.350697        -0.751105         1.128402
 H        -0.719277         0.510725         0.405830
 H        -0.331531        -1.077574        -0.449621
