19
Iteration:  4388
 C         1.242022         3.037767         0.343539
 C         1.982478         1.772908         0.043540
 C         3.069980         1.355221         0.986323
 O         3.459564         0.027825         0.496209
 C         2.766657        -0.032919        -0.711825
 C         2.495248         1.370202        -1.316113
 O         1.266259         0.960512        -1.843597
 C         1.289486         0.364230        -0.506080
 C         0.076970        -0.274765         0.155839
 H         0.645455         2.933117         1.305824
 H         1.879006         3.867901         0.336265
 H         0.756338         3.257761        -0.643671
 H         3.824715         2.112290         0.874268
 H         2.865988         1.236505         2.029410
 H         3.211215        -0.829001        -1.413969
 H         3.231355         1.875738        -2.015832
 H         0.101298        -0.834462         1.173427
 H        -0.694523         0.526767         0.283084
 H        -0.426765        -0.894417        -0.494028
