19
Iteration:  1845charge 0 multiplicity 1
 C         1.341358         3.132846         0.123895
 C         2.016870         1.781300         0.082258
 C         3.048367         1.317499         1.113549
 O         3.541371         0.141577         0.419469
 C         2.788089        -0.018707        -0.730161
 C         2.475949         1.327340        -1.395187
 O         1.112420         0.827632        -1.735889
 C         1.338238         0.406958        -0.375621
 C         0.085217        -0.290086         0.127280
 H         0.847312         3.193262         1.051526
 H         2.116463         3.905267         0.007320
 H         0.380417         3.155066        -0.639886
 H         3.636918         1.968293         1.679554
 H         2.320511         0.807200         1.927587
 H         3.041907        -0.851413        -1.258114
 H         2.986625         1.929439        -2.113053
 H         0.317393        -0.623820         1.243585
 H        -0.834380         0.341626         0.166862
 H        -0.316302        -1.037760        -0.535790
