19
Iteration:  4047
 C         1.162065         3.018049         0.201959
 C         1.975825         1.696207         0.072463
 C         3.047331         1.252778         1.112181
 O         3.643357         0.045120         0.380061
 C         2.841970        -0.056414        -0.740793
 C         2.501579         1.366282        -1.335674
 O         1.222975         0.929285        -1.834033
 C         1.204578         0.452916        -0.451099
 C         0.040831        -0.132393         0.223049
 H         0.791984         3.111396         1.267571
 H         1.854255         3.741182        -0.000066
 H         0.376637         2.999429        -0.483736
 H         3.745679         2.060084         1.401434
 H         2.602368         1.021888         2.092757
 H         3.105445        -0.851785        -1.410760
 H         3.210188         2.085865        -1.933547
 H         0.325850        -0.493541         1.178491
 H        -0.598466         0.750560         0.377745
 H        -0.478742        -1.008718        -0.398321
