19
Iteration:  1170charge 0 multiplicity 1
 C         1.268643         3.049993         0.194142
 C         2.013222         1.763205         0.014423
 C         2.915760         1.231552         1.065140
 O         3.668994         0.134743         0.410115
 C         2.778237        -0.039426        -0.712860
 C         2.514555         1.361511        -1.452127
 O         1.136830         0.834140        -1.802127
 C         1.306312         0.465225        -0.395749
 C         0.107766        -0.166668         0.303703
 H         0.708228         3.048582         1.103836
 H         1.938059         3.960325         0.194862
 H         0.485315         3.058525        -0.635475
 H         3.738559         1.724837         1.508355
 H         2.127864         0.774330         1.866130
 H         2.945431        -0.960218        -1.241648
 H         2.919949         2.019855        -2.326809
 H         0.567980        -0.758252         1.156830
 H        -0.572744         0.658329         0.719981
 H        -0.515845        -0.832200        -0.458552
