19
Iteration:  2962charge 0 multiplicity 1
 C         1.255144         3.038072         0.231313
 C         2.009117         1.784581         0.037508
 C         2.993512         1.290195         1.085522
 O         3.588673         0.108838         0.442281
 C         2.746256        -0.095769        -0.722170
 C         2.445890         1.355775        -1.446101
 O         1.167495         0.901227        -1.773953
 C         1.364466         0.401816        -0.390479
 C         0.109053        -0.184729         0.198049
 H         0.726905         3.189407         1.164498
 H         1.994246         3.799411         0.138682
 H         0.467468         3.168762        -0.622414
 H         3.715647         2.002255         1.310258
 H         2.428542         1.147648         2.010125
 H         2.971705        -1.001092        -1.308053
 H         3.153296         1.619937        -2.266132
 H         0.310746        -0.735052         1.101662
 H        -0.568840         0.681536         0.092947
 H        -0.294420        -0.933315        -0.417433
