19
Iteration:  4203charge 0 multiplicity 1
 C         1.206311         3.010399         0.227941
 C         1.983830         1.814621         0.072902
 C         3.109528         1.257404         0.994184
 O         3.526675         0.008951         0.516755
 C         2.683603        -0.046404        -0.740326
 C         2.530293         1.436100        -1.319788
 O         1.250251         0.989770        -1.877416
 C         1.284930         0.372348        -0.414606
 C         0.106094        -0.263039         0.183811
 H         0.830465         3.161192         1.225168
 H         1.730062         3.874195        -0.035808
 H         0.353904         3.010751        -0.460453
 H         3.919483         2.026293         1.107669
 H         2.557478         1.206074         1.977968
 H         2.915475        -0.912434        -1.460333
 H         3.052720         2.059345        -2.029625
 H         0.423281        -0.685932         1.211913
 H        -0.656252         0.515022         0.394240
 H        -0.326236        -1.033505        -0.391257
