19
Iteration:  2922charge 0 multiplicity 1
 C         1.330264         3.090489         0.238389
 C         1.956819         1.728436         0.083579
 C         3.062957         1.398909         1.048170
 O         3.650978         0.080538         0.446079
 C         2.702123        -0.071262        -0.684018
 C         2.434038         1.343475        -1.380801
 O         1.200718         0.879489        -1.861631
 C         1.198507         0.451358        -0.350052
 C         0.064518        -0.281515         0.119676
 H         0.659486         3.207029         1.139074
 H         2.222187         3.869093         0.403632
 H         0.776762         3.233362        -0.643528
 H         3.951030         2.132040         0.905209
 H         2.672234         1.130119         2.037014
 H         2.766547        -0.963852        -1.162617
 H         3.058729         1.844942        -2.102870
 H         0.321212        -0.448314         1.281601
 H        -0.984232         0.151509         0.068756
 H         0.020904        -1.255686        -0.359444
