19
Iteration:   198charge 0 multiplicity 1
 C         1.380275         3.117840         0.211971
 C         1.972437         1.753881         0.030050
 C         2.977436         1.308827         1.080752
 O         3.727560         0.224435         0.391443
 C         2.759155        -0.048510        -0.644800
 C         2.443269         1.279895        -1.332964
 O         1.156095         0.873287        -1.791236
 C         1.206719         0.446937        -0.390464
 C        -0.007729        -0.364192         0.117865
 H         0.593945         3.282506         0.970130
 H         2.278698         3.812575         0.483847
 H         0.994445         3.446552        -0.692456
 H         3.746477         2.162072         1.358538
 H         2.502657         0.818927         1.952151
 H         2.882737        -0.906503        -1.346042
 H         3.085691         1.881016        -2.016038
 H         0.245435        -0.744495         1.115300
 H        -1.009680         0.155786         0.128919
 H        -0.152373        -1.225207        -0.607503
