19
Iteration:  4145
 C         1.372806         3.141352         0.217150
 C         1.993425         1.759921         0.084657
 C         2.968609         1.299226         1.066189
 O         3.534632         0.110269         0.423620
 C         2.778000        -0.008105        -0.706918
 C         2.573517         1.387325        -1.364140
 O         1.126206         0.920680        -1.833241
 C         1.216593         0.412755        -0.388654
 C         0.066418        -0.392936         0.152217
 H         0.761814         3.109380         1.206599
 H         2.196146         3.812810         0.418291
 H         0.772260         3.313914        -0.640283
 H         3.947380         1.851109         1.336768
 H         2.572591         0.940096         2.078042
 H         3.024767        -0.808024        -1.410676
 H         3.159670         1.989916        -2.213033
 H         0.369416        -0.680850         1.100016
 H        -0.728181         0.308028         0.240318
 H        -0.204676        -1.342737        -0.471277
