19
Iteration:  3351charge 0 multiplicity 1
 C         1.226164         3.068238         0.242376
 C         1.955722         1.743012         0.042086
 C         3.096847         1.258841         1.072532
 O         3.619178         0.078148         0.449953
 C         2.804335         0.011130        -0.783857
 C         2.565356         1.368457        -1.389674
 O         1.193944         0.811616        -1.863236
 C         1.247195         0.420313        -0.367040
 C        -0.003384        -0.152525         0.215379
 H         0.528526         3.086597         1.083684
 H         1.954572         3.886582         0.578043
 H         0.737840         3.380119        -0.644585
 H         3.883425         1.953839         1.474001
 H         2.659900         0.790374         1.976541
 H         2.901013        -0.868050        -1.310930
 H         2.983301         2.011887        -2.121841
 H         0.128946        -0.694613         1.112124
 H        -0.774564         0.560282         0.457935
 H        -0.629926        -0.777534        -0.560094
