19
Iteration:  4328
 C         1.265690         3.104968         0.183562
 C         2.062301         1.795128         0.056916
 C         3.016354         1.267684         1.123559
 O         3.471078         0.060710         0.460829
 C         2.691882        -0.091209        -0.727548
 C         2.611287         1.380842        -1.332074
 O         1.133655         1.004061        -1.786989
 C         1.273279         0.434041        -0.530979
 C         0.165127        -0.364456         0.173336
 H         0.844609         3.316173         1.148977
 H         2.042643         3.963601         0.057796
 H         0.336213         3.195080        -0.374087
 H         3.757620         2.057136         1.410135
 H         2.559046         1.021302         2.133800
 H         2.878984        -0.911940        -1.353167
 H         3.163967         1.903151        -2.095443
 H         0.469789        -0.640056         1.184390
 H        -0.745933         0.260647         0.084020
 H         0.065975        -1.343957        -0.521253
