19
Iteration:  3645charge 0 multiplicity 1
 C         1.327645         3.132247         0.232717
 C         2.048492         1.824524         0.028544
 C         3.076897         1.272555         1.144600
 O         3.572094         0.071901         0.410444
 C         2.758656        -0.059300        -0.637416
 C         2.487775         1.290508        -1.394166
 O         1.060543         0.925769        -1.806687
 C         1.202856         0.515318        -0.431125
 C         0.107902        -0.314873         0.076957
 H         0.559927         2.951045         0.965067
 H         2.201727         3.894791         0.569441
 H         0.831724         3.477150        -0.626799
 H         3.959687         1.884499         1.345275
 H         2.586143         0.976799         2.069558
 H         2.973189        -0.979011        -1.253429
 H         3.192082         1.949789        -1.981161
 H         0.356315        -0.717966         1.030605
 H        -0.848542         0.223045         0.227574
 H         0.019746        -1.370395        -0.432424
