19
Iteration:  2074charge 0 multiplicity 1
 C         1.185954         2.986146         0.310188
 C         2.005187         1.800254         0.005585
 C         3.084282         1.332383         0.961939
 O         3.424990         0.016555         0.596772
 C         2.780531         0.000612        -0.705477
 C         2.542839         1.284699        -1.454338
 O         1.130717         0.907712        -1.851470
 C         1.353019         0.449169        -0.477706
 C         0.205508        -0.162399         0.217403
 H         0.634583         2.589246         1.156139
 H         1.622544         3.917271         0.411038
 H         0.360274         3.080564        -0.513233
 H         3.984812         2.001638         0.708182
 H         2.836411         1.415089         2.022931
 H         3.113681        -0.937446        -1.180350
 H         3.061225         1.936106        -2.160877
 H         0.448832        -0.393341         1.299209
 H        -0.604601         0.520700         0.117375
 H        -0.157451        -1.031052        -0.256930
