19
Iteration:  4566
 C         1.295804         3.062461         0.217511
 C         1.941866         1.702062         0.146562
 C         3.089986         1.237158         1.134848
 O         3.629922         0.105252         0.461670
 C         2.771995        -0.018679        -0.749741
 C         2.446058         1.406685        -1.315082
 O         1.174834         0.909375        -1.815313
 C         1.250828         0.387284        -0.478004
 C         0.039264        -0.199135         0.057059
 H         0.525733         3.122657         0.969936
 H         2.111396         3.908917         0.433216
 H         0.754223         3.070815        -0.784658
 H         3.783342         2.071898         1.123180
 H         2.606297         1.135005         2.117249
 H         3.141269        -0.759677        -1.382516
 H         3.208327         1.795811        -1.979892
 H         0.262776        -0.859682         0.947970
 H        -0.713731         0.510395         0.448095
 H        -0.501328        -0.984806        -0.572171
