19
Iteration:  2395
 C         1.278707         3.057527         0.144096
 C         1.981750         1.741820         0.040526
 C         3.002903         1.235390         1.051103
 O         3.622883         0.137307         0.456969
 C         2.687462        -0.082050        -0.746459
 C         2.519796         1.380000        -1.352937
 O         1.160023         0.937913        -1.796308
 C         1.265235         0.422112        -0.391346
 C         0.131655        -0.255505         0.281155
 H         0.872374         3.288269         1.088000
 H         2.115591         3.871736        -0.075117
 H         0.737576         3.251922        -0.807379
 H         3.652381         2.075397         1.346833
 H         2.438635         0.858113         1.901255
 H         2.806448        -0.896318        -1.331013
 H         2.936456         1.855655        -2.227229
 H         0.470160        -0.806245         1.086419
 H        -0.656037         0.484263         0.511391
 H        -0.226285        -0.997382        -0.554529
