19
Iteration:   201charge 0 multiplicity 1
 C         1.378523         3.129917         0.228311
 C         1.996289         1.757202         0.044057
 C         2.976622         1.331815         1.084891
 O         3.705763         0.215796         0.394377
 C         2.756435        -0.043653        -0.653751
 C         2.464732         1.250972        -1.302517
 O         1.142950         0.889642        -1.804303
 C         1.184965         0.434490        -0.428372
 C        -0.014627        -0.389574         0.130240
 H         0.576120         3.296887         0.918218
 H         2.195406         3.836872         0.527819
 H         1.040833         3.430878        -0.799689
 H         3.735555         2.108068         1.181734
 H         2.650561         0.978064         2.015312
 H         2.918097        -0.981677        -1.421678
 H         3.169199         1.964452        -1.979923
 H         0.248348        -0.715037         1.049269
 H        -0.916770         0.211645         0.280490
 H        -0.030229        -1.289257        -0.626686
