19
Iteration:  3714charge 0 multiplicity 1
 C         1.160388         2.971575         0.310607
 C         2.034754         1.794240         0.034321
 C         3.154562         1.312194         1.040870
 O         3.473740        -0.031255         0.433386
 C         2.763593        -0.020637        -0.693234
 C         2.551804         1.366710        -1.406561
 O         1.240353         0.954046        -1.909094
 C         1.292092         0.402515        -0.391424
 C         0.050003        -0.146999         0.229785
 H         0.763827         2.861651         1.335228
 H         1.550978         4.027543         0.137045
 H         0.172412         2.979354        -0.243207
 H         3.998210         1.985084         1.046387
 H         2.671832         1.195393         1.981470
 H         2.977482        -0.866379        -1.287187
 H         3.096954         2.023607        -2.061603
 H         0.297365        -0.686563         1.197020
 H        -0.681845         0.647893         0.307360
 H        -0.272113        -0.911115        -0.479722
