19
Iteration:  3185charge 0 multiplicity 1
 C         1.219592         3.000064         0.254622
 C         1.960338         1.780264         0.050183
 C         3.084959         1.294915         1.071498
 O         3.553376         0.048427         0.508772
 C         2.765319        -0.004682        -0.742087
 C         2.501177         1.308466        -1.372580
 O         1.201925         0.916431        -1.865175
 C         1.259005         0.411996        -0.446202
 C         0.096831        -0.197528         0.176911
 H         0.509793         2.941059         1.099822
 H         1.825786         4.057632         0.374466
 H         0.830858         3.176004        -0.724753
 H         3.968208         1.945870         1.014300
 H         2.752538         1.275911         2.062642
 H         2.944480        -1.017000        -1.398475
 H         3.082566         1.941974        -2.062141
 H         0.338492        -0.620527         1.173705
 H        -0.341740         0.736616         0.553162
 H        -0.560402        -0.822800        -0.480544
