19
Iteration:   793charge 0 multiplicity 1
 C         1.291846         2.992232         0.463006
 C         2.034822         1.781858        -0.001915
 C         3.240097         1.415578         0.826735
 O         3.318023         0.011504         0.571174
 C         2.708525         0.002721        -0.729891
 C         2.537910         1.365369        -1.414768
 O         1.173491         0.927972        -1.848612
 C         1.284276         0.376609        -0.410034
 C         0.108686        -0.286176         0.138034
 H         0.829426         2.797277         1.556186
 H         1.889286         3.892628         0.512009
 H         0.443441         3.269253        -0.093785
 H         4.114413         1.880122         0.537320
 H         3.024382         1.781506         1.908755
 H         3.071353        -0.904786        -1.377664
 H         2.981267         1.988137        -2.128279
 H         0.209458        -0.163187         1.310835
 H        -0.848371         0.101790        -0.178018
 H         0.022628        -1.276860        -0.244647
