19
Iteration:  1893
 C         1.194549         2.998360         0.263830
 C         2.024067         1.746958         0.053385
 C         3.111701         1.359776         1.012888
 O         3.570503         0.148211         0.420334
 C         2.731819        -0.072663        -0.649089
 C         2.580219         1.283914        -1.358526
 O         1.225878         0.926258        -1.820129
 C         1.225886         0.399547        -0.476103
 C         0.002833        -0.220416         0.220370
 H         0.244420         2.827250         0.893051
 H         1.808628         3.909072         0.652802
 H         0.800264         3.199106        -0.721914
 H         3.948348         2.121107         0.850323
 H         2.801741         1.463135         2.102529
 H         2.962684        -1.026864        -1.268442
 H         3.214098         1.707761        -2.240519
 H         0.312982        -0.341921         1.208667
 H        -0.903149         0.377097         0.173063
 H        -0.299083        -1.192910        -0.235276
