19
Iteration:   243charge 0 multiplicity 1
 C         1.212521         3.044976         0.221350
 C         2.059494         1.827204         0.003430
 C         3.132766         1.372707         0.941184
 O         3.334363        -0.075571         0.604236
 C         2.734241        -0.042861        -0.704324
 C         2.530778         1.404734        -1.383129
 O         1.127581         0.943993        -1.815615
 C         1.312490         0.526037        -0.386812
 C         0.256593        -0.327511         0.192378
 H         0.407140         2.678246         0.840530
 H         1.637721         4.033825         0.647159
 H         0.685291         3.241562        -0.688574
 H         4.154921         1.861082         0.602742
 H         2.905717         1.618672         1.949127
 H         3.094646        -1.017325        -1.284221
 H         3.122624         2.031266        -2.159387
 H         0.600600        -0.883481         0.954488
 H        -0.734436         0.081772         0.418068
 H        -0.057507        -1.023853        -0.679662
