19
Iteration:  4516
 C         1.280402         3.068721         0.273964
 C         2.006936         1.778449         0.001295
 C         3.123982         1.321193         1.114067
 O         3.464768         0.021358         0.506009
 C         2.659506        -0.007492        -0.613671
 C         2.608215         1.315519        -1.359284
 O         1.111755         1.025716        -1.921763
 C         1.205266         0.535516        -0.505807
 C         0.224222        -0.400116         0.100903
 H         0.899658         2.930330         1.325972
 H         1.939319         3.880032         0.293533
 H         0.397205         3.135445        -0.277909
 H         4.073226         1.939932         1.269525
 H         2.502284         1.327496         2.069425
 H         2.815009        -1.042418        -1.145706
 H         3.249192         1.878580        -2.054177
 H         0.401703        -0.732393         1.103429
 H        -0.733126         0.078864         0.246451
 H         0.006826        -1.304195        -0.504135
