19
Iteration:  3331
 C         1.278367         3.029753         0.255584
 C         2.013289         1.760751         0.017527
 C         2.979006         1.265001         1.085411
 O         3.615830         0.087988         0.439289
 C         2.751584        -0.082940        -0.681413
 C         2.466024         1.320239        -1.368153
 O         1.176709         0.932274        -1.837377
 C         1.296851         0.446708        -0.477800
 C         0.102996        -0.160513         0.201746
 H         0.548803         2.932887         1.139305
 H         1.807858         3.940685         0.477333
 H         0.583224         3.183183        -0.645371
 H         3.828797         1.961909         1.154208
 H         2.592254         1.099577         2.042528
 H         2.873350        -0.922909        -1.289169
 H         3.192308         1.722524        -2.094874
 H         0.541605        -0.525439         1.069449
 H        -0.772959         0.426380         0.406917
 H        -0.446408        -0.910766        -0.469727
