19
Iteration:  1122charge 0 multiplicity 1
 C         1.277796         3.109733         0.216493
 C         1.975198         1.740759         0.000741
 C         3.166030         1.403849         0.937533
 O         3.619396         0.068433         0.462520
 C         2.683698        -0.032060        -0.613016
 C         2.508647         1.321371        -1.352865
 O         1.184558         0.951135        -1.758586
 C         1.201422         0.418539        -0.382867
 C         0.009521        -0.385894         0.148414
 H         0.831424         3.173575         1.279308
 H         1.909837         3.940067        -0.025393
 H         0.401536         3.157767        -0.498198
 H         4.025093         2.120434         0.678841
 H         3.014742         1.291536         2.042169
 H         2.851000        -0.981966        -1.195586
 H         3.210146         1.894303        -1.912144
 H         0.366469        -1.183307         0.770521
 H        -0.725839         0.256217         0.696997
 H        -0.532632        -0.717381        -0.730341
