19
Iteration:  1465charge 0 multiplicity 1
 C         1.257041         3.123887         0.158050
 C         2.003547         1.799896         0.003862
 C         3.024854         1.271591         1.043159
 O         3.578289        -0.000910         0.484064
 C         2.784786         0.011573        -0.696937
 C         2.498250         1.377962        -1.317284
 O         1.101548         0.866482        -1.809104
 C         1.330812         0.395788        -0.419889
 C         0.107389        -0.248582         0.204751
 H         1.134319         3.370756         1.272754
 H         1.902878         3.882030        -0.473823
 H         0.258096         3.214830        -0.298808
 H         3.932269         1.980687         1.329838
 H         2.417629         1.080004         1.912543
 H         2.951878        -0.801372        -1.482179
 H         3.099886         2.028953        -2.094504
 H         0.156430        -0.167944         1.364559
 H        -0.843541         0.220911        -0.028008
 H         0.115147        -1.269930        -0.189827
