19
Iteration:  1430
 C         1.402608         3.032078         0.215017
 C         1.971452         1.712850         0.085959
 C         2.960151         1.286959         1.126233
 O         3.699330         0.304621         0.372319
 C         2.733763        -0.045842        -0.669030
 C         2.476308         1.250172        -1.378111
 O         1.120174         0.861184        -1.869485
 C         1.243636         0.412521        -0.398124
 C        -0.028887        -0.233952         0.186805
 H         1.150686         3.280772         1.184493
 H         2.226991         3.768854         0.052723
 H         0.501270         3.272126        -0.513441
 H         3.810365         1.978399         1.612572
 H         2.505526         0.798867         1.913913
 H         3.051141        -0.882442        -1.336246
 H         3.408297         1.633411        -2.077199
 H         0.200376        -0.453535         1.219076
 H        -0.862153         0.438473        -0.066329
 H        -0.133492        -1.280390        -0.245050
