19
Iteration:  3134
 C         1.194290         3.071101         0.244907
 C         2.029495         1.827065         0.057252
 C         3.175052         1.325567         1.123377
 O         3.428746         0.002802         0.504358
 C         2.675383        -0.067111        -0.701992
 C         2.548962         1.342718        -1.488804
 O         1.169910         0.932377        -1.871045
 C         1.261591         0.468927        -0.448672
 C         0.182573        -0.227484         0.208212
 H         0.721552         3.090680         1.283883
 H         1.605562         4.020257         0.040613
 H         0.403879         2.965449        -0.477296
 H         4.138147         1.934895         1.223237
 H         2.731292         1.083765         2.145198
 H         2.974343        -0.939069        -1.284839
 H         3.274153         1.713709        -2.221553
 H         0.469557        -0.607229         1.156062
 H        -0.755907         0.291923         0.333374
 H         0.128141        -1.223638        -0.446323
