19
Iteration:   807
 C         1.185744         3.045815         0.510076
 C         2.011937         1.819644         0.019911
 C         3.268182         1.420672         0.811083
 O         3.371918         0.003000         0.551818
 C         2.687788        -0.102567        -0.681095
 C         2.510996         1.392169        -1.391377
 O         1.238381         0.942995        -1.931243
 C         1.266194         0.437920        -0.527596
 C         0.080854        -0.319153         0.215787
 H         0.805180         2.848322         1.613690
 H         1.840466         3.933394         0.540354
 H         0.343786         3.178559        -0.177003
 H         4.168371         1.949415         0.391456
 H         3.358444         1.407973         1.924191
 H         2.857425        -1.044388        -1.233509
 H         3.382211         1.734616        -1.992522
 H         0.139149        -0.290624         1.331148
 H        -0.778048         0.320335         0.026262
 H         0.052035        -1.327045        -0.022773
