19
Iteration:  3543charge 0 multiplicity 1
 C         1.156383         2.941403         0.288872
 C         2.012682         1.784579         0.040020
 C         3.222419         1.373535         0.980047
 O         3.528249        -0.017747         0.517674
 C         2.731673        -0.056423        -0.629259
 C         2.536956         1.351216        -1.371084
 O         1.193426         0.995407        -1.912574
 C         1.233205         0.430344        -0.430326
 C         0.063909        -0.197965         0.139662
 H         0.603485         2.836897         1.274026
 H         1.857184         3.787725         0.442052
 H         0.391504         3.126191        -0.518777
 H         4.052461         2.066343         0.730396
 H         2.961205         1.457807         2.040845
 H         2.896145        -1.042361        -1.032864
 H         3.109496         1.851699        -2.112114
 H         0.363917        -0.646686         1.153194
 H        -0.800508         0.476904         0.373542
 H        -0.384732        -0.898554        -0.431959
