19
Iteration:  3576charge 0 multiplicity 1
 C         1.171821         3.008579         0.254735
 C         2.061689         1.798743         0.011625
 C         3.048117         1.335548         1.033442
 O         3.445044        -0.000418         0.441525
 C         2.732784        -0.050827        -0.669699
 C         2.582033         1.334387        -1.401994
 O         1.183957         0.992820        -1.810872
 C         1.306631         0.483771        -0.396329
 C         0.153279        -0.250395         0.143835
 H         0.974878         3.055738         1.358298
 H         1.856852         3.796660         0.008741
 H         0.184586         3.164204        -0.242865
 H         4.065342         1.843320         1.075920
 H         2.688516         1.132889         2.054647
 H         2.804383        -1.049960        -1.124097
 H         3.048340         1.764980        -2.254673
 H         0.479014        -0.739849         1.127599
 H        -0.659885         0.484593         0.408409
 H        -0.102011        -1.065228        -0.394996
