19
Iteration:  4183charge 0 multiplicity 1
 C         1.248271         3.058304         0.182276
 C         2.029046         1.789351         0.084741
 C         2.984578         1.266676         1.166198
 O         3.545468         0.053849         0.364251
 C         2.757852        -0.004402        -0.702631
 C         2.629070         1.273001        -1.409368
 O         1.110921         1.006040        -1.776529
 C         1.304114         0.492214        -0.422498
 C         0.089673        -0.302352         0.146425
 H         0.858876         3.187784         1.148972
 H         1.905004         3.894617        -0.131410
 H         0.299573         3.085800        -0.432253
 H         3.739160         2.018134         1.361850
 H         2.558445         0.920634         2.113079
 H         3.030831        -0.944739        -1.228601
 H         3.186791         1.831394        -2.074288
 H         0.501810        -0.752458         1.166111
 H        -0.885028         0.235365         0.408400
 H        -0.126351        -1.123562        -0.461893
