19
Iteration:  2896charge 0 multiplicity 1
 C         1.244003         3.133481         0.252666
 C         2.062834         1.819652        -0.043014
 C         3.147885         1.354187         0.971086
 O         3.441309         0.054444         0.549742
 C         2.722209        -0.033907        -0.729097
 C         2.598695         1.348672        -1.375090
 O         1.084936         0.924354        -1.745737
 C         1.259187         0.417037        -0.412592
 C         0.131139        -0.349276         0.152359
 H         0.736271         2.990716         1.151710
 H         1.926537         3.884708         0.444130
 H         0.447832         3.278323        -0.568480
 H         4.057454         1.885765         0.875723
 H         2.775198         1.300479         1.982136
 H         3.045130        -1.053273        -1.229642
 H         3.279965         1.611876        -2.251924
 H         0.173989        -0.542035         1.230696
 H        -0.755249         0.231854        -0.153773
 H        -0.022016        -1.343067        -0.317051
