19
Iteration:  4141charge 0 multiplicity 1
 C         1.366035         3.151066         0.256804
 C         1.967213         1.736725         0.093580
 C         3.002808         1.293625         1.037116
 O         3.512591         0.112081         0.448416
 C         2.769919         0.018696        -0.746608
 C         2.592454         1.400284        -1.374680
 O         1.159753         0.890830        -1.801746
 C         1.215436         0.441487        -0.429522
 C         0.051184        -0.417391         0.156036
 H         0.666041         3.154621         1.083534
 H         2.289188         3.844536         0.413797
 H         0.731702         3.320452        -0.678861
 H         3.908323         1.804442         1.228941
 H         2.647630         1.017088         2.023597
 H         3.026729        -0.770128        -1.415797
 H         3.140296         1.869903        -2.146974
 H         0.353052        -0.677671         1.215688
 H        -0.784423         0.334311         0.247236
 H        -0.238529        -1.256203        -0.412299
