19
Iteration:   323charge 0 multiplicity 1
 C         1.281993         3.094191         0.277376
 C         2.036323         1.766106         0.053158
 C         3.032140         1.183349         1.146534
 O         3.681070         0.175912         0.365476
 C         2.810093         0.047563        -0.736193
 C         2.433529         1.320837        -1.358650
 O         1.101119         0.799662        -1.767107
 C         1.344183         0.339752        -0.361089
 C        -0.024634        -0.150055         0.055922
 H         0.824865         3.378901         1.241146
 H         1.964131         3.850988         0.034162
 H         0.525881         3.201389        -0.605890
 H         3.839453         1.783896         1.583449
 H         2.446502         0.752913         1.976433
 H         3.071641        -0.861301        -1.253858
 H         2.957725         1.993991        -2.121030
 H        -0.115949        -0.420252         1.061506
 H        -0.726582         0.691267        -0.081057
 H        -0.178525        -1.025448        -0.514231
