19
Iteration:   675
 C         1.197501         2.987254         0.409913
 C         2.045465         1.841970        -0.001788
 C         3.163985         1.361873         0.973529
 O         3.465522         0.009860         0.483887
 C         2.562865        -0.058537        -0.608072
 C         2.550109         1.293419        -1.453848
 O         1.240792         0.980341        -1.969503
 C         1.222165         0.500897        -0.438778
 C         0.172519        -0.252284         0.215285
 H         0.811479         2.722269         1.487151
 H         1.686221         3.917157         0.492348
 H         0.394947         3.111969        -0.180858
 H         4.139080         1.969589         0.768852
 H         3.043493         1.465442         2.057232
 H         2.642551        -1.028261        -1.328469
 H         3.205788         1.778885        -2.135981
 H         0.813775        -1.019675         0.879532
 H        -0.611080         0.136439         0.888371
 H        -0.324433        -0.807728        -0.502990
