19
Iteration:  4125
 C         1.292666         3.131597         0.303355
 C         1.938986         1.776581         0.051021
 C         3.106343         1.346507         1.027874
 O         3.493114        -0.006638         0.470240
 C         2.738917        -0.021509        -0.698600
 C         2.447225         1.377513        -1.340487
 O         1.226320         0.917680        -1.899353
 C         1.267283         0.365185        -0.420964
 C         0.105477        -0.293503         0.159815
 H         0.618971         3.226444         1.202473
 H         2.037382         3.810447         0.581051
 H         0.885093         3.522470        -0.583359
 H         3.813042         2.220227         0.823414
 H         2.861523         1.264910         2.119059
 H         2.922917        -0.961500        -1.338739
 H         3.125954         2.079129        -1.953265
 H         0.385909        -0.737070         1.120756
 H        -0.833963         0.230891         0.215750
 H        -0.012206        -1.245989        -0.489332
