19
Iteration:  3649
 C         1.319128         3.119118         0.259539
 C         2.066253         1.779148         0.007894
 C         3.114841         1.312541         1.120555
 O         3.569296         0.058017         0.445215
 C         2.716100        -0.026610        -0.667468
 C         2.511423         1.299101        -1.428985
 O         1.072527         0.936319        -1.778448
 C         1.181129         0.500486        -0.448182
 C         0.089808        -0.321843         0.075816
 H         0.519194         2.961071         1.019243
 H         2.088062         3.877328         0.605148
 H         0.819586         3.487257        -0.747247
 H         3.990309         1.872139         1.483180
 H         2.607881         1.000640         2.051934
 H         3.054965        -0.930725        -1.099196
 H         3.201377         1.866086        -2.035408
 H         0.381185        -0.714409         1.098451
 H        -0.848441         0.184151         0.195102
 H         0.009578        -1.272319        -0.454856
