19
Iteration:  2349
 C         1.295144         3.089181         0.255923
 C         1.996086         1.810223        -0.000458
 C         3.126368         1.369631         0.924810
 O         3.441465         0.009040         0.547469
 C         2.674531         0.015712        -0.648363
 C         2.501526         1.335659        -1.395773
 O         1.158332         0.933139        -1.859684
 C         1.251742         0.472086        -0.375043
 C         0.184325        -0.382075         0.194111
 H         0.858440         2.963798         1.207015
 H         1.812063         4.009131         0.243592
 H         0.577154         3.182943        -0.646570
 H         4.092476         1.905771         0.717090
 H         2.898280         1.355067         1.958874
 H         2.788016        -0.962574        -1.265259
 H         3.345610         1.823517        -1.906708
 H         0.451829        -0.643578         1.231940
 H        -0.654081         0.278547         0.205445
 H        -0.048864        -1.331169        -0.392131
