19
Iteration:  2202
 C         1.262483         3.058699         0.272653
 C         2.009191         1.818944        -0.058537
 C         3.131515         1.421780         0.954515
 O         3.378353         0.006011         0.526730
 C         2.685355        -0.023465        -0.645977
 C         2.567530         1.334245        -1.418615
 O         1.214035         0.933462        -1.814976
 C         1.219132         0.474985        -0.429934
 C         0.175582        -0.369381         0.238736
 H         0.646233         3.044784         1.230257
 H         1.892039         3.940721         0.342823
 H         0.592685         3.046437        -0.526502
 H         4.027603         2.008042         0.746457
 H         3.013881         1.426481         2.056086
 H         3.039864        -0.885028        -1.260111
 H         3.096927         1.804701        -2.203580
 H         0.511001        -0.868197         1.144417
 H        -0.826698         0.095418         0.560838
 H        -0.006025        -1.053173        -0.613011
