19
Iteration:  4231charge 0 multiplicity 1
 C         1.168184         2.948406         0.348549
 C         1.965589         1.803383         0.051462
 C         3.190622         1.391171         0.980349
 O         3.452065         0.023987         0.580811
 C         2.740985        -0.093784        -0.823100
 C         2.594244         1.311245        -1.330790
 O         1.227196         0.948840        -1.865783
 C         1.249128         0.422820        -0.507541
 C         0.103138        -0.174584         0.181856
 H         0.527855         2.670709         1.287729
 H         1.784900         3.926234         0.501359
 H         0.333906         3.212599        -0.303240
 H         3.990019         2.107737         0.904110
 H         2.843501         1.545257         1.990904
 H         3.075512        -0.918936        -1.429992
 H         3.105339         1.885534        -2.187124
 H         0.396502        -0.609589         1.078042
 H        -0.735482         0.490601         0.325220
 H        -0.250005        -1.002591        -0.597642
