19
Iteration:  1248charge 0 multiplicity 1
 C         1.166333         3.124282         0.305528
 C         2.050950         1.791933         0.077883
 C         3.214533         1.454795         0.921953
 O         3.470256         0.038130         0.491575
 C         2.726424        -0.094326        -0.695738
 C         2.514990         1.259292        -1.460244
 O         1.166418         0.921676        -1.774994
 C         1.286385         0.480874        -0.333387
 C         0.073314        -0.328519         0.106017
 H         0.611081         3.251894         1.256075
 H         1.920552         3.989782         0.397047
 H         0.504556         3.142803        -0.536994
 H         4.066039         2.089679         0.837573
 H         3.018136         1.281623         2.082118
 H         2.900170        -1.135400        -1.189432
 H         3.086946         1.627776        -2.355539
 H         0.002823        -0.477632         1.275029
 H        -0.790626         0.231258        -0.305161
 H         0.177674        -1.436939        -0.168949
