19
Iteration:  3799charge 0 multiplicity 1
 C         1.280394         3.145324         0.250920
 C         2.045998         1.730288         0.071704
 C         3.158260         1.293289         1.053743
 O         3.470523         0.034103         0.540372
 C         2.673468        -0.022450        -0.719925
 C         2.485982         1.348348        -1.387963
 O         1.105253         1.002819        -1.843980
 C         1.287389         0.426347        -0.401432
 C         0.144071        -0.387391         0.080662
 H         0.523308         3.199384         1.019446
 H         2.199666         3.838238         0.522329
 H         0.931839         3.497323        -0.685361
 H         4.054283         2.042949         0.937254
 H         2.751428         1.400109         2.128068
 H         2.967228        -0.844928        -1.295156
 H         3.007960         1.956695        -2.132728
 H         0.444058        -0.686803         1.111800
 H        -0.793475         0.135800         0.231922
 H        -0.130303        -1.356076        -0.531545
