19
Iteration:  3266
 C         1.277608         3.134154         0.226118
 C         1.954384         1.794962         0.068484
 C         3.069275         1.291843         1.007666
 O         3.422794        -0.018598         0.484335
 C         2.741130        -0.018696        -0.727328
 C         2.583733         1.403253        -1.345050
 O         1.187552         0.922605        -1.830062
 C         1.309044         0.433985        -0.378513
 C         0.119377        -0.303888         0.187028
 H         0.763518         3.252855         1.264416
 H         1.967507         3.934834         0.065361
 H         0.396594         3.108911        -0.522687
 H         3.885363         2.001332         0.711689
 H         3.016616         1.182419         2.061950
 H         2.881957        -0.917942        -1.172685
 H         3.125899         1.901661        -2.162773
 H         0.335160        -0.562619         1.215994
 H        -0.805469         0.218498        -0.055032
 H         0.090474        -1.232803        -0.512382
