19
Iteration:   244
 C         1.210460         3.045313         0.222735
 C         2.057355         1.825062         0.003207
 C         3.140872         1.375252         0.938963
 O         3.328786        -0.078311         0.607092
 C         2.730102        -0.040606        -0.701718
 C         2.535016         1.405143        -1.383677
 O         1.125124         0.941092        -1.814237
 C         1.319235         0.537886        -0.398539
 C         0.255898        -0.324655         0.194486
 H         0.430633         2.654438         0.858407
 H         1.597475         4.022870         0.653547
 H         0.632329         3.223394        -0.704137
 H         4.156280         1.864865         0.626176
 H         2.900769         1.561464         1.951730
 H         3.104869        -1.036859        -1.288163
 H         3.156274         2.024004        -2.194585
 H         0.599981        -0.872830         0.962995
 H        -0.722360         0.092641         0.469226
 H        -0.031809        -1.038455        -0.699418
