19
Iteration:  4688
 C        -0.051019         0.032500        -0.028036
 C         1.373474         0.452435         0.010158
 O         2.286823         0.166396         1.194680
 C         3.183319         0.506557         0.141814
 C         2.478751        -0.281697        -0.984321
 C         2.533657         0.369907        -2.356535
 C         2.281233         1.829123        -1.774486
 C         2.311062         1.680591        -0.295448
 O         2.068216         2.905215         0.378530
 H        -0.803524         0.411747         0.730735
 H        -0.505763         0.420925        -0.911290
 H        -0.405729        -0.995284        -0.208900
 H         4.269937         0.530353         0.295311
 H         2.472571        -1.365113        -0.836929
 H         3.592446         0.351223        -2.653043
 H         1.817921         0.040026        -3.143341
 H         3.107773         2.501021        -2.316187
 H         1.374119         2.238872        -2.150237
 H         1.964945         2.794923         1.338583
