19
Iteration:   733charge 0 multiplicity 1
 C        -0.034427        -0.017555         0.064747
 C         1.392792         0.457735        -0.039774
 O         2.186275         0.127674         1.086069
 C         3.250914         0.612062         0.129637
 C         2.458090        -0.267500        -0.867785
 C         2.436905         0.382520        -2.344546
 C         2.443882         1.932562        -1.945726
 C         2.267762         1.652149        -0.423299
 O         2.078543         2.836249         0.514681
 H        -0.545855         0.540848         0.816731
 H        -0.464508         0.134484        -1.010082
 H         0.076482        -1.062969         0.374752
 H         4.268138         0.736874         0.521353
 H         2.493581        -1.415289        -0.484470
 H         3.309528         0.117070        -2.885626
 H         1.404385        -0.031298        -2.825560
 H         3.471785         2.378232        -2.034846
 H         1.579045         2.528654        -2.367064
 H         1.467793         2.774416         1.269336
