19
Iteration:  4077
 C        -0.107653         0.094130         0.087444
 C         1.428163         0.391296        -0.008890
 O         2.283069         0.142897         1.120278
 C         3.249332         0.490795         0.087299
 C         2.404589        -0.349866        -1.002177
 C         2.644049         0.469645        -2.316594
 C         2.327839         1.895879        -1.871330
 C         2.273538         1.739531        -0.330724
 O         1.940780         2.815520         0.455242
 H        -0.490123         0.667625         0.988319
 H        -0.658845         0.517786        -0.742114
 H        -0.313326        -0.944603         0.109294
 H         4.302796         0.372159         0.402523
 H         2.462440        -1.483780        -1.108385
 H         3.695648         0.254335        -2.670024
 H         1.906533         0.093685        -2.984046
 H         3.082602         2.559546        -2.124444
 H         1.388522         2.244089        -2.323681
 H         2.287490         2.752608         1.372308
