19
Iteration:  4186charge 0 multiplicity 1
 C        -0.118469         0.194996        -0.043849
 C         1.463678         0.304308        -0.095318
 O         2.338113         0.163240         1.197937
 C         3.254885         0.605546         0.088539
 C         2.521069        -0.306364        -0.925408
 C         2.489681         0.403653        -2.366361
 C         2.262120         1.818664        -1.855974
 C         2.227215         1.680163        -0.330062
 O         2.028339         2.781673         0.531745
 H        -0.474001         1.153266         0.496659
 H        -0.519559         0.333337        -1.038529
 H        -0.505357        -0.646761         0.406990
 H         4.306902         0.769238         0.347095
 H         2.589732        -1.430978        -0.884023
 H         3.534191         0.347234        -2.747475
 H         1.767795        -0.044223        -3.057140
 H         3.077243         2.504659        -2.188087
 H         1.269385         2.239025        -2.175376
 H         1.779907         2.385776         1.379551
