19
Iteration:   612
 C        -0.052198        -0.005473         0.082509
 C         1.445841         0.323585        -0.025556
 O         2.234037         0.267269         1.190728
 C         3.202065         0.473108         0.097927
 C         2.404248        -0.301770        -0.972097
 C         2.550507         0.431515        -2.359196
 C         2.448833         1.934077        -1.797752
 C         2.178566         1.703984        -0.416791
 O         2.034009         2.847294         0.395185
 H        -0.351377         0.655714         0.863623
 H        -0.734871         0.211222        -0.811617
 H        -0.246324        -0.978643         0.437323
 H         4.250334         0.461958         0.441069
 H         2.445172        -1.479478        -1.110734
 H         3.471716         0.149459        -2.875639
 H         1.550835         0.127429        -2.903281
 H         3.392075         2.519060        -1.931851
 H         1.578404         2.467618        -2.234308
 H         2.106631         2.474699         1.308998
