19
Iteration:   174charge 0 multiplicity 1
 C        -0.138368         0.134507         0.040760
 C         1.371902         0.301660        -0.038174
 O         2.289453         0.078677         1.211225
 C         3.202194         0.584102         0.144147
 C         2.506120        -0.319894        -0.928642
 C         2.608862         0.372803        -2.335400
 C         2.322364         1.872693        -1.970599
 C         2.245934         1.750455        -0.366387
 O         2.031112         2.907616         0.454800
 H        -0.566075         0.951180         0.781731
 H        -0.535994         0.241393        -0.933743
 H        -0.507397        -0.903668         0.405031
 H         4.265513         0.674415         0.437885
 H         2.758570        -1.377258        -0.835335
 H         3.511312         0.120470        -2.938584
 H         1.752315         0.018475        -2.917479
 H         3.072610         2.681024        -2.243151
 H         1.386373         2.111618        -2.401516
 H         2.193023         2.491387         1.311849
