19
Iteration:  3716charge 0 multiplicity 1
 C        -0.027172         0.312219        -0.048589
 C         1.443827         0.333222        -0.078980
 O         2.319543         0.039743         1.153188
 C         3.248793         0.587101         0.103218
 C         2.583990        -0.285566        -0.900996
 C         2.549565         0.373511        -2.297886
 C         2.261450         1.854593        -1.890836
 C         2.176438         1.704332        -0.348998
 O         1.923434         2.763256         0.545348
 H        -0.482700         0.948597         0.764134
 H        -0.446722         0.661598        -1.036257
 H        -0.385176        -0.657497         0.085660
 H         4.330983         0.659342         0.354559
 H         2.584375        -1.374286        -0.731389
 H         3.439624         0.282465        -2.968828
 H         1.704030         0.031877        -2.832320
 H         2.950279         2.434396        -2.438839
 H         1.256087         2.269289        -2.393715
 H         2.206357         2.481090         1.452156
