19
Iteration:   859
 C        -0.086627         0.341695        -0.002917
 C         1.440007         0.314869        -0.024458
 O         2.351955         0.141596         1.181834
 C         3.189275         0.601113         0.038795
 C         2.545033        -0.440326        -0.971969
 C         2.582250         0.397079        -2.288091
 C         2.239743         1.866913        -1.860151
 C         2.252980         1.666875        -0.329474
 O         1.957304         2.750808         0.518354
 H        -0.451688         1.150777         0.624961
 H        -0.354821         0.520790        -1.068275
 H        -0.559999        -0.558639         0.254093
 H         4.309782         0.753075         0.184606
 H         2.762107        -1.489521        -0.924817
 H         3.669054         0.239154        -2.763585
 H         1.986914        -0.029634        -3.076291
 H         2.925325         2.553771        -2.432771
 H         1.237608         2.220489        -2.188398
 H         1.465263         2.520762         1.323865
