19
Iteration:  1762charge 0 multiplicity 1
 C        -0.072928         0.309994         0.029935
 C         1.490362         0.276835        -0.069211
 O         2.269151         0.102780         1.208914
 C         3.227053         0.556820         0.083570
 C         2.607677        -0.363477        -0.955006
 C         2.482929         0.395323        -2.274245
 C         2.298338         1.913999        -1.854686
 C         2.269967         1.682883        -0.374660
 O         1.897219         2.753333         0.393424
 H        -0.175047         1.068512         0.819744
 H        -0.588452         0.758047        -0.888512
 H        -0.453520        -0.663725         0.309012
 H         4.330868         0.676169         0.552060
 H         3.012684        -1.390307        -0.843595
 H         3.383698         0.326531        -2.971084
 H         1.621146         0.128799        -2.823815
 H         3.071620         2.667202        -2.023841
 H         1.278010         2.162044        -2.218719
 H         2.099616         2.435915         1.289837
