19
Iteration:  3012
 C         0.016224         0.222995         0.144398
 C         1.443597         0.400094        -0.033529
 O         2.271464         0.086607         1.186727
 C         3.195939         0.588310         0.110654
 C         2.521475        -0.264716        -0.968957
 C         2.610803         0.322653        -2.434638
 C         2.369848         1.815595        -1.865524
 C         2.241963         1.692795        -0.368038
 O         1.811750         2.803787         0.413637
 H        -0.553338         1.056379         0.728794
 H        -0.450179         0.178866        -0.881958
 H        -0.189028        -0.680076         0.631110
 H         4.300868         0.541192         0.276622
 H         2.504913        -1.345513        -0.683918
 H         3.586760         0.234947        -2.958233
 H         1.771861         0.082557        -3.018699
 H         3.302913         2.460022        -1.928946
 H         1.483812         2.454857        -2.274528
 H         1.992695         2.578066         1.358012
