19
Iteration:  1107
 C        -0.011768        -0.170397        -0.009147
 C         1.404793         0.371831        -0.028405
 O         2.173098         0.239898         1.216614
 C         3.218931         0.579625         0.065601
 C         2.404220        -0.321546        -0.922645
 C         2.409903         0.420687        -2.286330
 C         2.452061         1.946573        -1.866361
 C         2.253069         1.736165        -0.383312
 O         2.136147         2.917490         0.403066
 H        -0.648901         0.319525         0.778412
 H        -0.439813        -0.106171        -0.981140
 H         0.168549        -1.206573         0.275554
 H         4.171818         0.375686         0.403398
 H         2.231854        -1.367832        -0.643608
 H         3.172323        -0.106583        -2.916564
 H         1.388069         0.362685        -2.855126
 H         3.482649         2.437127        -1.908555
 H         1.578681         2.531135        -2.372803
 H         2.259309         2.643654         1.340401
