19
Iteration:  3856
 C        -0.038468         0.327989        -0.009512
 C         1.446915         0.425290        -0.081095
 O         2.343452         0.001449         1.156909
 C         3.283552         0.554248         0.140095
 C         2.550852        -0.288397        -0.945214
 C         2.586358         0.426904        -2.312269
 C         2.180047         1.834580        -1.884417
 C         2.262295         1.754564        -0.365450
 O         1.892308         2.695097         0.519733
 H        -0.410484         0.978442         0.827915
 H        -0.352122         0.889402        -0.970627
 H        -0.494837        -0.604193         0.134536
 H         4.385314         0.594634         0.419442
 H         2.664025        -1.352186        -0.730736
 H         3.532503         0.312901        -2.807356
 H         1.843700        -0.048411        -2.967495
 H         2.873945         2.422388        -2.477367
 H         1.221252         2.185189        -2.182448
 H         1.595372         2.192324         1.294806
