19
Iteration:  3578
 C        -0.026820        -0.002600        -0.157043
 C         1.448402         0.430517        -0.055184
 O         2.304580         0.211193         1.185628
 C         3.253483         0.534854         0.117770
 C         2.482147        -0.353678        -0.872318
 C         2.320738         0.406593        -2.250882
 C         2.358086         1.887981        -1.872860
 C         2.235614         1.752941        -0.345216
 O         2.019874         2.829653         0.499427
 H        -0.718978         0.786598         0.338645
 H        -0.287171        -0.177500        -1.207123
 H        -0.112184        -0.926900         0.429421
 H         4.258393         0.569073         0.509912
 H         2.569285        -1.472598        -0.848370
 H         3.258604         0.182076        -2.788155
 H         1.407669         0.318050        -2.921437
 H         3.364726         2.397063        -2.202756
 H         1.722259         2.421624        -2.518655
 H         2.370230         2.518883         1.351931
