19
Iteration:  3750
 C        -0.056612        -0.028451        -0.031178
 C         1.415250         0.326335         0.003847
 O         2.219324         0.158613         1.193602
 C         3.175244         0.568879         0.072362
 C         2.495105        -0.274224        -0.889008
 C         2.427006         0.551707        -2.349818
 C         2.397746         1.897417        -1.795800
 C         2.329356         1.661212        -0.298437
 O         2.086096         2.835916         0.378247
 H        -0.774982         0.694565         0.501658
 H        -0.274199        -0.035191        -1.122112
 H        -0.195485        -1.030294         0.234439
 H         4.242417         0.617494         0.251898
 H         2.391744        -1.379467        -0.782395
 H         3.274595         0.275611        -3.051732
 H         1.533669         0.281652        -2.845266
 H         3.270107         2.484106        -2.047960
 H         1.435286         2.503176        -2.193433
 H         1.903839         2.388615         1.235282
