19
Iteration:  2065
 C        -0.121029         0.212015         0.059881
 C         1.417365         0.377458        -0.103913
 O         2.403937         0.098647         1.132012
 C         3.251978         0.563820         0.092543
 C         2.439663        -0.358573        -0.916304
 C         2.502888         0.449111        -2.293613
 C         2.355083         1.903256        -1.841115
 C         2.231895         1.688716        -0.349987
 O         1.957073         2.758194         0.472368
 H        -0.561415         1.037391         0.640295
 H        -0.399657         0.426633        -0.979491
 H        -0.448109        -0.757213         0.389304
 H         4.316156         0.560534         0.232267
 H         2.671052        -1.533892        -0.954539
 H         3.462307         0.328781        -2.807545
 H         1.730246        -0.000698        -2.992211
 H         3.308672         2.470202        -2.147610
 H         1.489902         2.374610        -2.307310
 H         1.609631         2.495499         1.359145
