19
Iteration:  3229charge 0 multiplicity 1
 C        -0.027716        -0.046141        -0.073723
 C         1.379396         0.351546        -0.036143
 O         2.243680         0.227690         1.171112
 C         3.186957         0.583247         0.150906
 C         2.450631        -0.272250        -0.893222
 C         2.519980         0.337829        -2.251262
 C         2.219947         1.891297        -1.890559
 C         2.264974         1.710305        -0.368237
 O         2.172862         2.906825         0.431038
 H        -0.669115         0.612432         0.624773
 H        -0.432322        -0.068034        -1.118680
 H         0.146372        -1.018525         0.274957
 H         4.237348         0.556867         0.468129
 H         2.417401        -1.348342        -0.786830
 H         3.430193         0.277917        -2.899740
 H         1.689043        -0.111886        -2.877081
 H         2.879123         2.701383        -2.301722
 H         1.256915         2.180462        -2.136357
 H         2.339426         2.548103         1.336184
