19
Iteration:   384
 C        -0.044724        -0.069208        -0.040823
 C         1.393377         0.463188        -0.115774
 O         2.237167         0.234878         1.261242
 C         3.227456         0.551723         0.151712
 C         2.444766        -0.228153        -0.882634
 C         2.393065         0.425142        -2.338474
 C         2.388994         1.880695        -1.878060
 C         2.308176         1.709426        -0.403605
 O         2.121977         2.797846         0.450145
 H        -0.524827         0.539687         0.753316
 H        -0.705939        -0.119730        -0.994055
 H        -0.006962        -1.086846         0.346777
 H         4.305810         0.603456         0.304850
 H         2.546256        -1.403496        -0.835953
 H         3.183642         0.135932        -2.942310
 H         1.387259         0.109187        -2.846120
 H         3.187659         2.349277        -2.323029
 H         1.481466         2.260737        -2.228869
 H         1.957617         2.449037         1.347903
