19
Iteration:   352charge 0 multiplicity 1
 C        -0.056490         0.123498        -0.002556
 C         1.374010         0.354109        -0.072040
 O         2.302462         0.166684         1.193058
 C         3.270702         0.573701         0.047081
 C         2.473471        -0.329378        -0.924474
 C         2.542422         0.374038        -2.301908
 C         2.268764         1.865919        -1.827784
 C         2.158691         1.660360        -0.312958
 O         2.061715         2.859862         0.418846
 H        -0.413486         0.860400         0.725050
 H        -0.706757         0.312811        -0.956742
 H        -0.343200        -0.852660         0.379389
 H         4.338288         0.783915         0.161573
 H         2.512433        -1.486101        -0.757785
 H         3.556053         0.307678        -2.504600
 H         1.930588        -0.025535        -3.212475
 H         3.120584         2.431010        -2.077055
 H         1.440236         2.428709        -2.266902
 H         2.245148         2.492564         1.324443
