19
Iteration:  3391
 C        -0.065410         0.063753        -0.043464
 C         1.397545         0.282677         0.004578
 O         2.263181         0.215329         1.234139
 C         3.244371         0.537282         0.113426
 C         2.503604        -0.379948        -0.931186
 C         2.490838         0.389455        -2.264999
 C         2.236384         1.920828        -1.828427
 C         2.263667         1.680225        -0.341871
 O         2.101048         2.889049         0.349912
 H        -0.633047         0.984322         0.266509
 H        -0.318030        -0.016843        -1.131098
 H        -0.441298        -0.816802         0.339342
 H         4.209192         0.762012         0.488647
 H         2.748312        -1.395801        -1.152973
 H         3.427244         0.306534        -2.814027
 H         1.682286        -0.044429        -2.880841
 H         3.097162         2.630558        -2.148139
 H         1.368738         2.421397        -2.249120
 H         2.068676         2.711386         1.314969
