19
Iteration:   530charge 0 multiplicity 1
 C        -0.019071         0.172507        -0.018685
 C         1.445044         0.369655        -0.032217
 O         2.297115         0.167923         1.171289
 C         3.232382         0.521892         0.176219
 C         2.445465        -0.276211        -0.976790
 C         2.516043         0.420569        -2.253737
 C         2.246837         1.837972        -1.902008
 C         2.247106         1.695335        -0.345243
 O         2.033595         2.785985         0.438441
 H        -0.587812         0.928044         0.592336
 H        -0.339011         0.221437        -1.049532
 H        -0.295142        -0.912199         0.283339
 H         4.309802         0.544289         0.411565
 H         2.568105        -1.320095        -0.993494
 H         3.506652         0.225551        -2.832132
 H         1.799391        -0.039402        -2.901269
 H         2.961904         2.595180        -2.310340
 H         1.231128         2.210819        -2.232180
 H         2.076181         2.528558         1.378531
