19
Iteration:  2197charge 0 multiplicity 1
 C        -0.053164        -0.015645         0.062223
 C         1.446524         0.306963         0.003000
 O         2.156776         0.152889         1.227761
 C         3.286824         0.526256         0.110939
 C         2.526070        -0.270761        -0.983518
 C         2.344536         0.496898        -2.368646
 C         2.502510         1.950216        -1.826289
 C         2.265799         1.674868        -0.388099
 O         2.008983         2.855063         0.352040
 H        -0.500778         0.607154         0.784891
 H        -0.656720         0.090167        -0.879381
 H        -0.227023        -1.030351         0.346312
 H         4.317972         0.634231         0.403001
 H         2.636611        -1.429769        -0.827743
 H         3.053813         0.182022        -3.103178
 H         1.318980         0.217872        -2.682334
 H         3.606672         2.233668        -1.909598
 H         1.950799         2.811286        -2.169007
 H         1.902888         2.677000         1.310872
