19
Iteration:  3972
 C        -0.189609        -0.068268         0.063503
 C         1.354756         0.311479        -0.076349
 O         2.244087         0.141031         1.129682
 C         3.191962         0.495384         0.088646
 C         2.523309        -0.294407        -1.010396
 C         2.537637         0.490645        -2.265634
 C         2.444514         1.968898        -1.845271
 C         2.161773         1.728947        -0.316664
 O         2.089284         2.902015         0.464682
 H        -0.863816         0.480415         0.629185
 H        -0.616322        -0.268909        -0.882194
 H        -0.116693        -0.986486         0.761462
 H         4.215267         0.667897         0.368543
 H         2.856009        -1.310128        -1.156258
 H         3.314369         0.131188        -2.943494
 H         1.622934         0.256153        -2.885822
 H         3.456514         2.484655        -2.034141
 H         1.759889         2.616735        -2.412419
 H         2.626868         2.795077         1.261505
