19
Iteration:   441charge 0 multiplicity 1
 C        -0.134258         0.107533         0.102641
 C         1.418672         0.453469        -0.044877
 O         2.361371         0.034723         1.116814
 C         3.230297         0.556082         0.195990
 C         2.435467        -0.298388        -0.924154
 C         2.502860         0.355466        -2.333654
 C         2.385344         1.874769        -1.797584
 C         2.239290         1.721108        -0.367344
 O         1.994521         2.902584         0.338203
 H        -0.767685         0.734941         0.707404
 H        -0.542527         0.263456        -0.974051
 H        -0.104718        -0.977200         0.383614
 H         4.295959         0.633746         0.470108
 H         2.571748        -1.422785        -0.875885
 H         3.477869         0.257770        -2.842938
 H         1.734759         0.013445        -3.113831
 H         3.259073         2.397567        -2.138546
 H         1.549619         2.503292        -2.220321
 H         1.787938         2.504011         1.220707
