19
Iteration:  2332
 C        -0.084931         0.079228         0.081378
 C         1.427070         0.357928        -0.036553
 O         2.267625         0.095145         1.200283
 C         3.196010         0.560912         0.093384
 C         2.492825        -0.317037        -1.011742
 C         2.480246         0.447826        -2.264730
 C         2.469393         1.936226        -1.801181
 C         2.214071         1.662333        -0.326412
 O         1.994029         2.833285         0.304021
 H        -0.510461         0.736562         0.805786
 H        -0.514743         0.246684        -0.912893
 H        -0.423906        -0.924906         0.426717
 H         4.270849         0.703445         0.295685
 H         2.523468        -1.379651        -0.998658
 H         3.371448         0.145616        -2.914181
 H         1.635355         0.198244        -2.821631
 H         3.353006         2.499547        -2.012948
 H         1.614060         2.632520        -2.152964
 H         2.044522         2.698982         1.273369
