19
Iteration:  2086
 C        -0.053127         0.334577         0.049439
 C         1.511820         0.346402        -0.095673
 O         2.265201         0.003136         1.177900
 C         3.235332         0.606300         0.129567
 C         2.574535        -0.286960        -0.989000
 C         2.579866         0.366453        -2.376580
 C         2.185217         1.871984        -1.881824
 C         2.215361         1.625873        -0.309252
 O         1.982220         2.807974         0.501946
 H        -0.304083         1.235570         0.670546
 H        -0.534415         0.561487        -0.912940
 H        -0.419958        -0.617238         0.336419
 H         4.277049         0.733074         0.363926
 H         2.685826        -1.474379        -0.793474
 H         3.478564         0.305604        -2.927046
 H         1.730099        -0.090612        -3.008308
 H         2.889246         2.708580        -2.215962
 H         1.190785         2.058093        -2.209408
 H         1.949142         2.364076         1.370279
