19
Iteration:  2667
 C        -0.003900         0.176720         0.088379
 C         1.413304         0.391126        -0.061033
 O         2.298203         0.106564         1.184734
 C         3.280326         0.569468         0.149819
 C         2.462841        -0.303440        -0.971526
 C         2.453191         0.396710        -2.358469
 C         2.499823         1.862181        -1.856989
 C         2.237650         1.654414        -0.295554
 O         1.843095         2.766125         0.365349
 H        -0.343710         0.869960         0.894735
 H        -0.487123         0.551410        -0.850209
 H        -0.438653        -0.824205         0.245162
 H         4.319758         0.744560         0.323944
 H         2.420829        -1.381683        -0.772660
 H         3.306553         0.274352        -2.947013
 H         1.602370         0.222939        -3.098971
 H         3.475402         2.499961        -2.112073
 H         1.615957         2.453957        -2.252079
 H         2.032535         2.795096         1.301683
