19
Iteration:  2175charge 0 multiplicity 1
 C        -0.007505        -0.025005         0.098647
 C         1.400748         0.367408        -0.098236
 O         2.200498         0.177816         1.172318
 C         3.142148         0.585154         0.241006
 C         2.482531        -0.309562        -1.051805
 C         2.402409         0.481515        -2.349277
 C         2.495105         1.897197        -1.857927
 C         2.246960         1.718534        -0.373344
 O         2.071117         2.805045         0.398972
 H        -0.394620         0.596149         0.867699
 H        -0.765687        -0.001064        -0.723949
 H        -0.035051        -1.048145         0.396284
 H         4.166607         0.672221         0.546051
 H         2.649435        -1.490460        -0.883707
 H         3.199230         0.275515        -3.038561
 H         1.434847         0.251819        -2.844101
 H         3.422756         2.541344        -1.985729
 H         1.670723         2.485394        -2.239329
 H         2.241993         2.555360         1.320810
