19
Iteration:  3489
 C        -0.114585         0.171814         0.244820
 C         1.371517         0.348904        -0.083089
 O         2.335504         0.061821         1.164736
 C         3.096069         0.543744         0.042188
 C         2.496326        -0.305713        -1.031670
 C         2.752098         0.347477        -2.269005
 C         2.341872         1.890786        -1.894251
 C         2.214175         1.749075        -0.369939
 O         1.924415         2.836899         0.403278
 H        -0.392093         0.923522         1.099663
 H        -0.657222         0.624686        -0.668304
 H        -0.536478        -0.761330         0.349277
 H         4.145655         0.654850         0.194244
 H         2.682402        -1.340074        -0.774510
 H         3.815262         0.248120        -2.586703
 H         2.189786        -0.050798        -3.164090
 H         3.130153         2.628172        -2.265779
 H         1.441884         2.182190        -2.430245
 H         2.015209         2.696833         1.356534
