19
Iteration:  1039
 C         0.010730         0.355908         0.068853
 C         1.466502         0.385939        -0.060364
 O         2.347676         0.136042         1.152194
 C         3.305261         0.469059         0.148115
 C         2.474640        -0.364006        -0.991893
 C         2.604760         0.385955        -2.339633
 C         2.243508         1.866875        -1.802248
 C         2.206833         1.661963        -0.337775
 O         1.843697         2.728484         0.390980
 H        -0.489974         1.130262         0.665440
 H        -0.505984         0.486867        -0.808731
 H        -0.486914        -0.552902         0.538666
 H         4.300879         0.504318         0.510323
 H         2.482848        -1.423812        -0.939354
 H         3.711717         0.584248        -2.681420
 H         2.072451         0.100696        -3.288094
 H         2.932610         2.673604        -2.145389
 H         1.160380         2.077557        -2.249187
 H         1.900445         2.582106         1.353960
