19
Iteration:  4030charge 0 multiplicity 1
 C        -0.106698         0.329523        -0.013569
 C         1.443754         0.229291        -0.017281
 O         2.255690         0.137325         1.144454
 C         3.333941         0.567279         0.086253
 C         2.606731        -0.279443        -1.002269
 C         2.536964         0.372744        -2.339148
 C         2.244312         1.890514        -1.761210
 C         2.249440         1.623106        -0.334153
 O         1.958962         2.745341         0.475072
 H        -0.355752         1.160716         0.630070
 H        -0.418143         0.628915        -1.051798
 H        -0.549111        -0.562794         0.134411
 H         4.470410         0.575228         0.212886
 H         2.988857        -1.300588        -0.898924
 H         3.510725         0.283300        -2.764953
 H         1.649243         0.100999        -2.996017
 H         2.831342         2.737790        -2.292321
 H         1.221828         2.156401        -1.681873
 H         1.404700         2.436812         1.244380
