19
Iteration:  2074charge 0 multiplicity 1
 C        -0.058772         0.303034        -0.029010
 C         1.372774         0.324585        -0.099352
 O         2.392981         0.026714         1.195668
 C         3.202680         0.581678         0.084922
 C         2.507947        -0.237152        -0.964561
 C         2.527720         0.400337        -2.291508
 C         2.296666         1.834314        -1.867942
 C         2.240528         1.715972        -0.346956
 O         1.973397         2.755923         0.487952
 H        -0.322047         0.984461         0.844775
 H        -0.703229         0.444607        -0.845576
 H        -0.281652        -0.600731         0.524353
 H         4.271326         0.655331         0.314561
 H         2.751717        -1.373339        -0.947137
 H         3.447424         0.189163        -2.706578
 H         1.727909         0.029488        -3.015030
 H         3.072899         2.542782        -2.249041
 H         1.373182         2.250715        -2.168328
 H         1.616610         2.420962         1.351690
