19
Iteration:  4485
 C        -0.012092        -0.029847        -0.135917
 C         1.450517         0.396793        -0.090865
 O         2.305425         0.162395         1.218309
 C         3.200834         0.643905         0.214160
 C         2.450081        -0.286024        -0.893877
 C         2.421922         0.341027        -2.307173
 C         2.330630         1.828967        -1.907477
 C         2.210777         1.702761        -0.275837
 O         2.114027         2.903673         0.443783
 H        -0.535972         0.590393         0.590717
 H        -0.486308         0.360088        -1.095054
 H        -0.353093        -1.121846        -0.080429
 H         4.262459         0.698888         0.507959
 H         2.346447        -1.345435        -0.912036
 H         3.232455         0.274738        -3.122866
 H         1.453887        -0.071658        -2.637186
 H         3.117282         2.399530        -2.271591
 H         1.413158         2.456482        -2.318872
 H         2.100773         2.678184         1.385585
