19
Iteration:  4079
 C        -0.108139         0.088423         0.090966
 C         1.422635         0.386256        -0.006208
 O         2.281544         0.148201         1.119093
 C         3.232607         0.508606         0.088613
 C         2.395725        -0.355399        -1.014844
 C         2.646160         0.481631        -2.312650
 C         2.343446         1.873835        -1.852938
 C         2.288981         1.716393        -0.333704
 O         1.949777         2.832831         0.448275
 H        -0.443509         0.630225         1.006917
 H        -0.640397         0.489285        -0.760545
 H        -0.347606        -1.068229         0.136007
 H         4.264719         0.435233         0.383259
 H         2.413986        -1.463874        -1.094010
 H         3.688901         0.288434        -2.714205
 H         1.902292         0.185990        -3.039926
 H         3.105599         2.518494        -2.157808
 H         1.357748         2.286202        -2.246524
 H         2.224826         2.750046         1.366706
