19
Iteration:   272charge 0 multiplicity 1
 C        -0.141773         0.189225         0.087804
 C         1.397519         0.304260         0.008099
 O         2.288368         0.187830         1.228791
 C         3.260883         0.564832         0.079183
 C         2.478692        -0.328590        -0.972463
 C         2.586868         0.432828        -2.328993
 C         2.341987         1.892673        -1.919116
 C         2.201041         1.696960        -0.358401
 O         1.961934         2.766565         0.392121
 H        -0.519412         0.967580         0.891521
 H        -0.523157         0.345824        -0.892852
 H        -0.388108        -0.861718         0.493255
 H         4.354801         0.467541         0.182932
 H         2.843112        -1.358643        -0.932495
 H         3.631453         0.268888        -2.753450
 H         1.897540         0.062291        -3.077976
 H         3.406861         2.222991        -2.040145
 H         1.553189         2.401759        -2.353574
 H         2.115295         2.333183         1.264904
