19
Iteration:  4622charge 0 multiplicity 1
 C        -0.001365         0.102619         0.028558
 C         1.408093         0.425457        -0.133164
 O         2.240514         0.122361         1.208042
 C         3.212900         0.569265         0.171489
 C         2.482820        -0.329806        -0.929021
 C         2.472228         0.368259        -2.320998
 C         2.381009         1.900738        -1.926437
 C         2.261265         1.713860        -0.385092
 O         1.997489         2.802873         0.461751
 H        -0.406115         1.021621         0.573249
 H        -0.417038         0.079556        -0.947181
 H        -0.106041        -0.794128         0.611390
 H         4.258320         0.628189         0.491987
 H         2.630218        -1.403900        -0.768806
 H         3.352092         0.196849        -2.893530
 H         1.560700         0.006152        -2.833087
 H         3.234460         2.616530        -2.277068
 H         1.551776         2.453399        -2.234073
 H         1.815319         2.529714         1.365035
