19
Iteration:    39charge 0 multiplicity 1
 C        -0.016470        -0.133084        -0.059619
 C         1.349119         0.372841        -0.006375
 O         2.246557         0.262657         1.156191
 C         3.163714         0.675990         0.100136
 C         2.392224        -0.275193        -0.894352
 C         2.430710         0.347370        -2.260747
 C         2.353771         1.868536        -1.803104
 C         2.258853         1.741188        -0.358103
 O         2.175798         2.863380         0.402108
 H        -0.768698         0.387301         0.623815
 H        -0.466466        -0.009812        -1.198440
 H         0.057469        -1.229050         0.169219
 H         4.259150         0.732425         0.282414
 H         2.501962        -1.382135        -0.806856
 H         3.465903         0.256291        -2.704977
 H         1.701939        -0.075050        -2.998949
 H         3.392213         2.236018        -2.055858
 H         1.575593         2.499208        -2.302833
 H         2.224791         2.551498         1.318002
