19
Iteration:  1759charge 0 multiplicity 1
 C        -0.079439         0.308080         0.041550
 C         1.493496         0.292002        -0.087922
 O         2.266248         0.107842         1.211012
 C         3.256043         0.557920         0.106263
 C         2.609514        -0.362831        -0.940802
 C         2.491849         0.413083        -2.317911
 C         2.299690         1.910027        -1.845797
 C         2.274773         1.639895        -0.384277
 O         1.871500         2.765766         0.404128
 H        -0.101460         1.163330         0.840457
 H        -0.604292         0.779403        -0.805963
 H        -0.450871        -0.651035         0.316004
 H         4.201514         0.515698         0.533619
 H         3.021456        -1.332630        -0.875338
 H         3.335479         0.313539        -2.994596
 H         1.589775         0.058347        -2.856157
 H         3.057902         2.639113        -2.051911
 H         1.350466         2.098082        -2.249432
 H         2.128211         2.476875         1.315039
