19
Iteration:  4068charge 0 multiplicity 1
 C        -0.064286         0.208745         0.071980
 C         1.420194         0.400164        -0.066030
 O         2.291132         0.103926         1.160644
 C         3.291343         0.410229         0.084827
 C         2.495785        -0.272736        -0.943525
 C         2.603477         0.382934        -2.293865
 C         2.286993         1.984651        -1.928270
 C         2.178990         1.739009        -0.368528
 O         1.914998         2.774835         0.498300
 H        -0.603197         0.634156         0.962805
 H        -0.570722         0.611756        -0.801384
 H        -0.272892        -0.954410         0.118953
 H         4.326615         0.268112         0.331298
 H         2.626805        -1.376804        -0.933571
 H         3.683188         0.228566        -2.621627
 H         2.002273        -0.118186        -3.035905
 H         2.993930         2.728320        -2.119422
 H         1.356438         2.226127        -2.530530
 H         2.490290         2.601394         1.278784
