19
Iteration:  2720
 C        -0.027696        -0.056377        -0.039866
 C         1.348476         0.393678        -0.056486
 O         2.229721         0.146879         1.200383
 C         3.178765         0.605826         0.183065
 C         2.438291        -0.255473        -0.958952
 C         2.465120         0.337562        -2.285823
 C         2.284147         1.885970        -1.852325
 C         2.241076         1.790553        -0.362609
 O         2.203089         2.876447         0.393851
 H        -0.688182         0.393831         0.782275
 H        -0.651329        -0.074616        -0.961170
 H         0.059550        -1.106284         0.169284
 H         4.204640         0.625770         0.534417
 H         2.751221        -1.308787        -0.804763
 H         3.377323         0.353803        -2.832691
 H         1.660004         0.070405        -3.000134
 H         3.254321         2.375917        -1.974300
 H         1.509727         2.506203        -2.360975
 H         2.345195         2.520465         1.285531
