19
Iteration:  1241
 C        -0.087317         0.163388         0.190073
 C         1.355867         0.417341        -0.050504
 O         2.262093         0.137002         1.137850
 C         3.170873         0.581294         0.095479
 C         2.557793        -0.284203        -1.036711
 C         2.615036         0.373540        -2.358647
 C         2.329122         1.769825        -1.873962
 C         2.256207         1.662911        -0.337360
 O         1.950235         2.887147         0.455074
 H        -0.495085         0.822848         0.871710
 H        -0.669426         0.201441        -0.793975
 H        -0.138332        -0.835932         0.474896
 H         4.222121         0.479845         0.448196
 H         2.803795        -1.374186        -0.881026
 H         3.533661         0.291007        -2.889661
 H         1.745166        -0.163693        -2.936512
 H         3.213286         2.415801        -2.279680
 H         1.452382         2.085304        -2.429971
 H         2.444491         2.631429         1.258069
