19
Iteration:  2046
 C        -0.020902         0.105877         0.040428
 C         1.409374         0.335573         0.080544
 O         2.263824         0.210405         1.226163
 C         3.230858         0.459895        -0.025229
 C         2.446492        -0.300427        -1.011968
 C         2.487059         0.438938        -2.365290
 C         2.459687         1.943363        -1.781858
 C         2.196564         1.691903        -0.381151
 O         1.962049         2.783451         0.426514
 H        -0.555290         0.750425         0.717037
 H        -0.421805         0.207601        -1.053605
 H        -0.189718        -0.851999         0.590638
 H         4.282280         0.526377         0.264468
 H         2.469010        -1.436377        -1.106909
 H         3.388669         0.028368        -2.999022
 H         1.592386         0.232610        -2.958855
 H         3.415394         2.519850        -1.838154
 H         1.632511         2.584227        -2.234908
 H         2.145966         2.580583         1.381435
