19
Iteration:  4571
 C        -0.076245         0.288104         0.200166
 C         1.354066         0.330573        -0.101261
 O         2.325217        -0.005877         1.203762
 C         3.198921         0.597530         0.133174
 C         2.506878        -0.316339        -1.025100
 C         2.675324         0.420201        -2.265363
 C         2.372001         1.876650        -1.903927
 C         2.132414         1.685527        -0.429259
 O         1.924047         2.794558         0.385254
 H        -0.291186         1.272971         0.682837
 H        -0.700279         0.138739        -0.720033
 H        -0.276098        -0.598669         0.959696
 H         4.275017         0.532890         0.371600
 H         2.735552        -1.351763        -0.981755
 H         3.761712         0.418117        -2.688544
 H         2.100401         0.106441        -3.175067
 H         3.082473         2.639730        -2.160967
 H         1.409069         2.220022        -2.479526
 H         1.836869         2.551885         1.333376
