19
Iteration:  3804charge 0 multiplicity 1
 C        -0.171509        -0.056839         0.120680
 C         1.360458         0.311723        -0.013248
 O         2.189981         0.097054         1.149899
 C         3.185113         0.620709         0.090758
 C         2.503406        -0.241756        -1.005385
 C         2.537191         0.485485        -2.338935
 C         2.472006         2.035385        -1.827750
 C         2.214530         1.703962        -0.351399
 O         2.116101         2.795887         0.376173
 H        -0.849426         0.569682         0.794635
 H        -0.596255        -0.297673        -0.870097
 H        -0.087310        -0.963849         0.637923
 H         4.220831         0.668264         0.467385
 H         2.612644        -1.362534        -1.001697
 H         3.498622         0.069483        -2.727134
 H         1.744776         0.218712        -2.970484
 H         3.354410         2.609399        -1.990093
 H         1.476012         2.451136        -2.278069
 H         2.398099         2.593733         1.288455
