19
Iteration:  3226charge 0 multiplicity 1
 C        -0.027919        -0.034187        -0.057256
 C         1.391111         0.380668        -0.065014
 O         2.253323         0.213903         1.166777
 C         3.182837         0.585588         0.173373
 C         2.454321        -0.245534        -0.899496
 C         2.526085         0.331845        -2.282557
 C         2.228676         1.869254        -1.886581
 C         2.239169         1.742150        -0.343036
 O         2.179572         2.879112         0.423379
 H        -0.613845         0.613034         0.605777
 H        -0.480755        -0.132834        -1.089291
 H         0.077043        -1.066515         0.326203
 H         4.218968         0.580396         0.480049
 H         2.371754        -1.374889        -0.820563
 H         3.508339         0.210718        -2.776714
 H         1.675281        -0.146940        -2.854681
 H         2.873823         2.716757        -2.336982
 H         1.146296         2.172812        -2.112744
 H         2.256572         2.535382         1.333050
