19
Iteration:  4454
 C        -0.075136         0.023981         0.016167
 C         1.423172         0.359295        -0.075743
 O         2.176797         0.184923         1.204773
 C         3.254120         0.568445         0.058272
 C         2.544606        -0.342932        -0.943134
 C         2.511928         0.472409        -2.253341
 C         2.359064         1.857891        -1.800479
 C         2.248054         1.679768        -0.286139
 O         2.039827         2.859511         0.324897
 H        -0.367649         0.647126         0.799877
 H        -0.551788         0.352371        -0.955935
 H        -0.154668        -1.023080         0.257973
 H         4.344297         0.537694         0.294385
 H         2.637049        -1.477722        -0.918700
 H         3.244669         0.237566        -3.040163
 H         1.619423        -0.007795        -2.677398
 H         3.142490         2.527692        -2.146655
 H         1.418991         2.433323        -2.110651
 H         1.898047         2.782095         1.303817
