19
Iteration:   570charge 0 multiplicity 1
 C        -0.007881        -0.049825         0.015815
 C         1.393626         0.266987        -0.025644
 O         2.232873         0.137099         1.179579
 C         3.164043         0.604005         0.164163
 C         2.485035        -0.242463        -1.009410
 C         2.389104         0.384120        -2.276814
 C         2.429655         1.882112        -1.851764
 C         2.183695         1.751424        -0.327391
 O         2.152513         2.952430         0.383862
 H        -0.486167         0.652426         0.661931
 H        -0.335453         0.151422        -1.050729
 H        -0.304894        -1.056510         0.307063
 H         4.195219         0.647461         0.518508
 H         2.570510        -1.473086        -1.113939
 H         3.214576         0.077016        -2.815713
 H         1.373781         0.223331        -2.842517
 H         3.416268         2.291813        -1.950086
 H         1.702744         2.445954        -2.411706
 H         1.928631         2.601720         1.285242
