19
Iteration:  1934charge 0 multiplicity 1
 C        -0.005556         0.351483         0.053131
 C         1.455310         0.314320        -0.136029
 O         2.279793         0.081198         1.125001
 C         3.239219         0.603440         0.161403
 C         2.552608        -0.282227        -0.930758
 C         2.570957         0.356193        -2.368270
 C         2.189927         1.822844        -1.855215
 C         2.173742         1.681737        -0.332979
 O         2.004029         2.756247         0.523744
 H        -0.474882         1.046432         0.803699
 H        -0.275619         0.705221        -0.985903
 H        -0.407063        -0.636318         0.211305
 H         4.215770         0.768867         0.429746
 H         2.695281        -1.383717        -1.031999
 H         3.537624         0.010278        -2.763266
 H         1.731433         0.014322        -3.055973
 H         2.937323         2.654987        -2.161354
 H         1.315642         2.099033        -2.425703
 H         1.956372         2.287775         1.377325
