19
Iteration:  4816charge 0 multiplicity 1
 C        -0.078777        -0.005432        -0.084730
 C         1.352930         0.330249        -0.147425
 O         2.215530         0.099977         1.272331
 C         3.217940         0.617346         0.146861
 C         2.566924        -0.283065        -0.890622
 C         2.435647         0.402992        -2.240020
 C         2.283480         1.963007        -1.878433
 C         2.281285         1.692591        -0.364023
 O         2.169726         2.855809         0.396874
 H        -0.601841         0.810466         0.445541
 H        -0.600232        -0.012927        -1.039556
 H        -0.222320        -0.864963         0.484001
 H         4.255644         0.808968         0.519550
 H         2.652310        -1.416486        -0.878623
 H         3.197753         0.374948        -3.019305
 H         1.574008        -0.086716        -2.700782
 H         3.088320         2.511867        -2.293260
 H         1.358650         2.354198        -2.219547
 H         2.311020         2.759383         1.367011
