19
Iteration:  4580
 C        -0.106509         0.286860         0.170188
 C         1.339498         0.261691        -0.110337
 O         2.396167         0.053993         1.237306
 C         3.106560         0.562279         0.133841
 C         2.467068        -0.333110        -1.007752
 C         2.727280         0.415019        -2.376416
 C         2.333730         1.911697        -1.850272
 C         2.216036         1.631320        -0.333324
 O         1.906358         2.830168         0.341657
 H        -0.331328         1.278425         0.657902
 H        -0.583379         0.133435        -0.741969
 H        -0.157600        -0.551417         0.937174
 H         4.184381         0.717754         0.112083
 H         2.505003        -1.388862        -0.894693
 H         3.801704         0.416666        -2.656503
 H         2.002566         0.173867        -3.158709
 H         3.271091         2.590887        -2.048932
 H         1.482413         2.413195        -2.336184
 H         1.862917         2.376420         1.222525
