19
Iteration:  4885charge 0 multiplicity 1
 C        -0.017884         0.176456         0.139002
 C         1.442450         0.321476        -0.024091
 O         2.165313         0.135337         1.154346
 C         3.190484         0.566837         0.122808
 C         2.594312        -0.301340        -1.014075
 C         2.574443         0.406894        -2.367477
 C         2.357810         1.878115        -1.880237
 C         2.187114         1.645588        -0.341699
 O         1.974634         2.819960         0.415545
 H        -0.511195         0.533353         1.074427
 H        -0.631620         0.705618        -0.596255
 H        -0.463284        -0.884378         0.165777
 H         4.258245         0.862610         0.325942
 H         2.631008        -1.367222        -0.941906
 H         3.523650         0.228837        -2.929285
 H         1.799415        -0.067809        -3.045458
 H         3.364424         2.433284        -2.057903
 H         1.591315         2.482369        -2.195481
 H         2.136241         2.601772         1.337908
