19
Iteration:  4153
 C        -0.001040         0.006763        -0.032467
 C         1.420185         0.378162        -0.066413
 O         2.276019         0.157068         1.188833
 C         3.230686         0.496240         0.132309
 C         2.443189        -0.297922        -0.935278
 C         2.397636         0.511971        -2.273716
 C         2.382840         1.919467        -1.804434
 C         2.191019         1.685087        -0.370567
 O         2.050277         2.831857         0.404215
 H        -0.590988         0.746290         0.574800
 H        -0.321668        -0.114585        -1.062740
 H        -0.118488        -0.894421         0.413338
 H         4.286135         0.657350         0.409576
 H         2.302921        -1.420937        -0.928476
 H         3.332124         0.279867        -2.830207
 H         1.616631         0.133409        -2.912457
 H         3.338809         2.453150        -1.986023
 H         1.617030         2.462002        -2.371997
 H         2.426105         2.624123         1.283230
