19
Iteration:  3033
 C        -0.138404         0.036210         0.085404
 C         1.441103         0.280345        -0.094167
 O         2.235598         0.155340         1.139454
 C         3.239731         0.541128         0.157103
 C         2.554317        -0.334360        -0.913219
 C         2.542962         0.453611        -2.222974
 C         2.283731         1.921436        -1.856462
 C         2.203417         1.706177        -0.375939
 O         2.080723         2.849508         0.314333
 H        -0.406034         0.931849         0.803438
 H        -0.642626         0.093193        -0.919871
 H        -0.260137        -0.855839         0.605402
 H         4.285400         0.596575         0.546407
 H         2.720679        -1.458426        -0.871596
 H         3.539927         0.490400        -2.747136
 H         1.783513         0.091079        -2.910069
 H         3.084777         2.696269        -2.187570
 H         1.306121         2.270311        -2.345966
 H         1.892445         2.952722         1.273702
