19
Iteration:  2597
 C        -0.049094         0.124891         0.050877
 C         1.469796         0.387802        -0.071772
 O         2.200524         0.145593         1.158884
 C         3.255222         0.396215         0.084167
 C         2.542840        -0.356055        -0.927601
 C         2.619023         0.437026        -2.300434
 C         2.165175         1.852116        -1.878529
 C         2.217365         1.738273        -0.378363
 O         2.119834         2.880830         0.492105
 H        -0.463234         1.054494         0.591214
 H        -0.683766         0.226393        -0.838711
 H        -0.607872        -0.684038         0.519950
 H         4.292974         0.587369         0.468517
 H         2.535870        -1.486149        -0.890464
 H         3.718474         0.500623        -2.643600
 H         2.080888         0.059213        -3.117522
 H         2.827326         2.596925        -2.270939
 H         1.135613         2.090641        -2.263451
 H         1.289921         2.809523         0.961432
