19
Iteration:  1534
 C        -0.122049         0.246245         0.204434
 C         1.402139         0.449058         0.025375
 O         2.295467         0.104815         1.204971
 C         3.177076         0.471754         0.089052
 C         2.524374        -0.360075        -1.025340
 C         2.725402         0.396007        -2.390960
 C         2.274669         1.901248        -1.894347
 C         2.182904         1.686201        -0.373277
 O         1.955903         2.811426         0.356777
 H        -0.565029         0.867958         0.938167
 H        -0.494725         0.148722        -0.920656
 H        -0.120894        -0.767326         0.581687
 H         4.198989         0.624822         0.343517
 H         2.361084        -1.393204        -0.851648
 H         3.823543         0.283685        -2.609721
 H         2.105607        -0.101644        -3.069817
 H         3.075441         2.622929        -2.085004
 H         1.321282         2.176021        -2.362757
 H         2.181044         2.537560         1.294829
