19
Iteration:  3639charge 0 multiplicity 1
 C        -0.073869         0.029285         0.141114
 C         1.301386         0.387873        -0.128983
 O         2.282316         0.029872         1.146211
 C         3.105504         0.612726         0.131050
 C         2.450963        -0.282189        -1.004431
 C         2.632599         0.388818        -2.378949
 C         2.417066         1.859777        -1.812813
 C         2.209036         1.762953        -0.336447
 O         2.056145         2.928195         0.413390
 H        -0.431332         0.533035         1.050253
 H        -0.862798         0.219261        -0.648648
 H        -0.069637        -1.021925         0.405743
 H         4.190762         0.595790         0.331567
 H         2.760085        -1.313068        -0.846884
 H         3.682060         0.083206        -2.666945
 H         1.893175         0.234412        -3.129233
 H         3.170503         2.558483        -1.973846
 H         1.391786         2.096992        -2.297750
 H         2.231038         2.721165         1.359157
