19
Iteration:  4324charge 0 multiplicity 1
 C        -0.069810        -0.010329        -0.087596
 C         1.395116         0.359762        -0.010441
 O         2.328004         0.176986         1.216496
 C         3.211659         0.579531         0.134688
 C         2.466277        -0.315671        -0.922663
 C         2.419494         0.371053        -2.323778
 C         2.356239         1.912382        -1.869512
 C         2.235514         1.754866        -0.307479
 O         2.090079         2.860576         0.428633
 H        -0.765871         0.590259         0.500722
 H        -0.260384         0.129598        -1.229829
 H        -0.340178        -1.091546         0.127986
 H         4.311374         0.675640         0.327616
 H         2.591698        -1.412866        -0.741152
 H         3.275507         0.227701        -2.932093
 H         1.454655         0.119712        -2.838427
 H         3.308784         2.506458        -2.044977
 H         1.496636         2.331724        -2.335276
 H         1.955534         2.651559         1.359301
