19
Iteration:  1766
 C        -0.048681         0.314727         0.008459
 C         1.469132         0.263095        -0.047018
 O         2.274150         0.100739         1.193950
 C         3.221455         0.569745         0.082588
 C         2.604666        -0.359453        -0.966986
 C         2.497093         0.385095        -2.234707
 C         2.289074         1.905665        -1.857350
 C         2.251471         1.714070        -0.365128
 O         1.932329         2.742824         0.386560
 H        -0.332848         0.949254         0.839571
 H        -0.487187         0.647011        -0.906643
 H        -0.498161        -0.689799         0.304182
 H         4.272460         0.810349         0.421044
 H         2.895700        -1.435329        -0.851972
 H         3.357468         0.300294        -2.871550
 H         1.574733         0.130571        -2.852433
 H         3.084715         2.674855        -2.095583
 H         1.270822         2.321445        -2.166538
 H         2.034902         2.414660         1.320391
