19
Iteration:  3059
 C        -0.068621        -0.100394        -0.015366
 C         1.384209         0.367919         0.053916
 O         2.177496         0.156654         1.262516
 C         3.123185         0.623812         0.101970
 C         2.464854        -0.288113        -0.993739
 C         2.558507         0.393593        -2.327256
 C         2.246891         1.836845        -1.880463
 C         2.218997         1.730895        -0.332838
 O         2.288350         2.940579         0.372494
 H        -0.770743         0.380904         0.614485
 H        -0.345542         0.025486        -1.052967
 H         0.036736        -1.231346         0.224412
 H         4.153596         0.883404         0.397825
 H         2.739819        -1.315267        -0.975712
 H         3.599102         0.422389        -2.652334
 H         1.796774         0.040565        -3.026766
 H         2.851437         2.626462        -2.247962
 H         1.145749         2.021178        -2.182735
 H         2.093038         2.964425         1.339598
