19
Iteration:   983
 C        -0.066742         0.166284         0.008493
 C         1.412743         0.295593        -0.116902
 O         2.281585         0.216713         1.284502
 C         3.178743         0.551345         0.126159
 C         2.516779        -0.313598        -0.964127
 C         2.561050         0.435729        -2.270018
 C         2.292927         1.903752        -1.855003
 C         2.214464         1.656508        -0.373797
 O         2.052489         2.732504         0.389862
 H        -0.461826         0.874977         0.727272
 H        -0.610899         0.322460        -0.928983
 H        -0.320818        -0.890143         0.273925
 H         4.270108         0.588270         0.296170
 H         2.749787        -1.403066        -1.008606
 H         3.435740         0.443039        -3.081777
 H         1.640448         0.189802        -2.810842
 H         3.051543         2.665004        -2.111059
 H         1.251342         2.238338        -2.279268
 H         2.218162         2.577367         1.349048
