19
Iteration:  3527
 C        -0.028731         0.312202         0.112446
 C         1.431958         0.310726        -0.067916
 O         2.233947         0.108845         1.180031
 C         3.201804         0.515097         0.125803
 C         2.601345        -0.352306        -0.955963
 C         2.677703         0.446647        -2.278967
 C         2.179667         1.901002        -1.853642
 C         2.279716         1.645871        -0.342824
 O         1.926959         2.777955         0.325591
 H        -0.342412         1.092214         0.750647
 H        -0.393874         0.472539        -0.877948
 H        -0.427522        -0.681722         0.577180
 H         4.329382         0.326133         0.285228
 H         2.686761        -1.435174        -1.160175
 H         3.682751         0.474201        -2.657935
 H         1.950172        -0.011390        -2.922715
 H         2.778254         2.728506        -2.272373
 H         1.094040         2.119129        -2.090190
 H         1.832405         2.515898         1.278533
