19
Iteration:  3612charge 0 multiplicity 1
 C        -0.044765        -0.099687         0.037680
 C         1.370474         0.361603         0.028628
 O         2.152821         0.172854         1.178035
 C         3.189226         0.594581         0.100007
 C         2.530556        -0.342853        -0.935756
 C         2.405569         0.523964        -2.309009
 C         2.437723         1.933651        -1.862031
 C         2.240497         1.728227        -0.363648
 O         2.152444         2.839419         0.370433
 H        -0.669027         0.534888         0.716880
 H        -0.546518        -0.078065        -0.908808
 H        -0.116414        -1.194152         0.450570
 H         4.249991         0.604612         0.471605
 H         2.767522        -1.437734        -0.975351
 H         3.263818         0.242014        -2.903701
 H         1.548400         0.319419        -3.057884
 H         3.510613         2.441796        -1.995065
 H         1.614437         2.379950        -2.334716
 H         1.827880         2.746244         1.279785
