19
Iteration:    43charge 0 multiplicity 1
 C        -0.005715        -0.133907        -0.072693
 C         1.397987         0.359219        -0.006550
 O         2.190128         0.264871         1.160198
 C         3.181674         0.678316         0.062021
 C         2.386072        -0.289055        -0.908868
 C         2.443503         0.357124        -2.238354
 C         2.338782         1.871069        -1.771882
 C         2.240746         1.728706        -0.353821
 O         2.183904         2.864064         0.371005
 H        -0.668031         0.433136         0.649939
 H        -0.295241         0.012674        -1.008029
 H         0.106221        -1.197905         0.196181
 H         4.248913         0.833020         0.318349
 H         2.386208        -1.348997        -0.823920
 H         3.425584         0.166753        -2.776080
 H         1.654994         0.020317        -2.860491
 H         3.383630         2.326134        -1.957930
 H         1.609223         2.481642        -2.191165
 H         2.250147         2.505812         1.303901
