19
Iteration:  2713
 C        -0.063645        -0.057201        -0.019608
 C         1.377189         0.316240        -0.057345
 O         2.209310         0.158294         1.183905
 C         3.223254         0.623123         0.186108
 C         2.451053        -0.255026        -0.928535
 C         2.459859         0.352553        -2.392995
 C         2.323176         1.881320        -1.836211
 C         2.248400         1.735380        -0.360330
 O         2.182535         2.945682         0.425599
 H        -0.518703         0.447974         0.777993
 H        -0.612219         0.045797        -0.968818
 H        -0.153448        -1.214325         0.199829
 H         4.258913         0.663499         0.530359
 H         2.565405        -1.293220        -0.690037
 H         3.339263         0.048058        -3.005122
 H         1.541414        -0.019410        -2.947628
 H         3.342272         2.510379        -2.013410
 H         1.514910         2.542140        -2.183320
 H         2.109291         2.600977         1.323278
