19
Iteration:   611charge 0 multiplicity 1
 C        -0.054573        -0.010444         0.081660
 C         1.437050         0.328694        -0.027978
 O         2.235531         0.269584         1.186172
 C         3.200327         0.467128         0.098679
 C         2.412877        -0.307594        -0.977692
 C         2.538071         0.429603        -2.351601
 C         2.449985         1.926327        -1.791342
 C         2.184647         1.715409        -0.414956
 O         2.031630         2.850069         0.398321
 H        -0.383218         0.651882         0.878065
 H        -0.736075         0.203349        -0.809044
 H        -0.215441        -0.997839         0.426631
 H         4.255662         0.462721         0.440109
 H         2.458629        -1.416527        -1.126946
 H         3.482373         0.137605        -2.894431
 H         1.587521         0.118516        -2.902691
 H         3.411038         2.494493        -1.959065
 H         1.594547         2.488611        -2.248839
 H         2.134552         2.503427         1.310226
