19
Iteration:  2824
 C        -0.082332         0.338772         0.092224
 C         1.448369         0.330914        -0.075680
 O         2.426194         0.132825         1.217607
 C         3.265759         0.561512         0.090347
 C         2.510011        -0.320148        -0.972676
 C         2.543189         0.355949        -2.294536
 C         2.431097         1.899958        -1.833776
 C         2.160962         1.635488        -0.351226
 O         1.763854         2.717096         0.338932
 H        -0.503229         1.133840         0.698241
 H        -0.462956         0.451397        -0.932208
 H        -0.417009        -0.571487         0.612839
 H         4.318443         0.310768         0.297415
 H         2.635000        -1.446921        -0.880142
 H         3.390545         0.191787        -2.955488
 H         1.656090         0.335822        -2.892014
 H         3.311422         2.688398        -1.930284
 H         1.556916         2.503687        -2.141362
 H         2.033477         2.311892         1.229062
