19
Iteration:   917charge 0 multiplicity 1
 C        -0.103766        -0.136470         0.105717
 C         1.389173         0.253120        -0.010330
 O         2.151354         0.143526         1.141872
 C         3.201513         0.648146         0.164623
 C         2.472797        -0.268301        -0.985259
 C         2.491242         0.488987        -2.349291
 C         2.437892         1.971271        -1.796296
 C         2.245361         1.708440        -0.329799
 O         2.171634         2.913342         0.313255
 H        -0.581253         0.599222         0.727243
 H        -0.716965         0.034682        -0.863691
 H        -0.401106        -1.105165         0.552245
 H         4.291683         0.396419         0.317291
 H         2.576156        -1.424261        -0.893873
 H         3.279085        -0.048650        -2.992644
 H         1.511644         0.256896        -2.732098
 H         3.490101         2.310926        -1.980861
 H         1.652834         2.610218        -2.384634
 H         2.008445         2.629451         1.242749
