19
Iteration:  2568charge 0 multiplicity 1
 C        -0.050441        -0.063195        -0.049496
 C         1.386312         0.399937        -0.005120
 O         2.266168         0.102294         1.193207
 C         3.166477         0.583400         0.123098
 C         2.414613        -0.218987        -0.897255
 C         2.484444         0.342986        -2.387927
 C         2.317733         1.895238        -1.823361
 C         2.272371         1.727241        -0.304273
 O         2.202635         2.882857         0.396944
 H        -0.720995         0.668285         0.537718
 H        -0.366705         0.180761        -1.086873
 H        -0.408142        -1.008588         0.342678
 H         4.199041         0.692162         0.343862
 H         2.638731        -1.265406        -0.565454
 H         3.446791         0.113856        -2.696658
 H         1.770551         0.003083        -3.251943
 H         3.220206         2.662539        -1.981729
 H         1.333220         2.419306        -2.001178
 H         1.383809         2.915131         0.920331
