19
Iteration:  4981charge 0 multiplicity 1
 C         0.001580         0.050110        -0.052310
 C         1.374215         0.341117        -0.037443
 O         2.157618         0.115474         1.215728
 C         3.150588         0.615089         0.126869
 C         2.522635        -0.235691        -0.941972
 C         2.502871         0.425089        -2.363267
 C         2.268276         1.848621        -1.906361
 C         2.219868         1.706799        -0.283571
 O         2.209105         2.836714         0.478303
 H        -0.707298         0.789933         0.401325
 H        -0.295524        -0.041784        -1.040390
 H        -0.161994        -0.871926         0.526530
 H         4.255008         0.973279         0.361466
 H         2.711344        -1.339585        -0.890745
 H         3.371694         0.264845        -3.059290
 H         1.737837        -0.141778        -2.922970
 H         3.078645         2.625876        -2.160328
 H         1.304394         2.295554        -2.309989
 H         2.244521         2.342879         1.361333
