19
Iteration:  4067charge 0 multiplicity 1
 C        -0.059373         0.216275         0.068070
 C         1.419066         0.401375        -0.071450
 O         2.292432         0.099465         1.165258
 C         3.288615         0.405866         0.086438
 C         2.507047        -0.262323        -0.939119
 C         2.598846         0.374926        -2.289363
 C         2.283733         1.988958        -1.933168
 C         2.168224         1.729017        -0.378147
 O         1.913565         2.774382         0.503362
 H        -0.591496         0.631900         0.981369
 H        -0.545156         0.610123        -0.818243
 H        -0.263982        -0.889215         0.120449
 H         4.341228         0.274240         0.318014
 H         2.629621        -1.385938        -0.901695
 H         3.679572         0.240342        -2.635835
 H         2.022057        -0.101767        -3.047731
 H         2.975280         2.717442        -2.131825
 H         1.360863         2.238915        -2.508585
 H         2.502342         2.577913         1.278681
