19
Iteration:  3022
 C        -0.035524         0.150079         0.119434
 C         1.405820         0.388651        -0.055577
 O         2.239185         0.102856         1.159255
 C         3.219813         0.557032         0.110445
 C         2.555934        -0.320201        -0.974556
 C         2.576556         0.420801        -2.257362
 C         2.362259         1.874354        -1.843895
 C         2.235335         1.659184        -0.357892
 O         1.914682         2.854834         0.340788
 H        -0.572104         0.967768         0.766039
 H        -0.629462         0.073342        -0.833019
 H        -0.146284        -0.783385         0.591724
 H         4.275687         0.736630         0.400389
 H         2.769623        -1.426300        -1.072641
 H         3.492314         0.123037        -2.819396
 H         1.755385         0.041921        -2.864320
 H         3.138146         2.623166        -2.236330
 H         1.328854         2.205654        -2.187499
 H         2.166797         2.501135         1.234100
