19
Iteration:  1543
 C        -0.189711         0.248607         0.234734
 C         1.393736         0.392515         0.017834
 O         2.328781         0.170472         1.161619
 C         3.209321         0.467304         0.079735
 C         2.536361        -0.353705        -1.026726
 C         2.735503         0.411616        -2.363559
 C         2.307096         1.821762        -1.840991
 C         2.191947         1.635508        -0.389980
 O         1.922246         2.818495         0.366080
 H        -0.576783         1.045900         0.836822
 H        -0.737273         0.430450        -0.711497
 H        -0.518675        -0.669201         0.602862
 H         4.348810         0.566810         0.195856
 H         2.618488        -1.414152        -0.973972
 H         3.773560         0.576331        -2.721613
 H         2.183487         0.070039        -3.188482
 H         3.036926         2.570803        -2.042333
 H         1.433761         2.211105        -2.383378
 H         2.094280         2.445037         1.277885
