19
Iteration:  2116
 C        -0.103451         0.253320         0.009333
 C         1.484675         0.326122        -0.140179
 O         2.285229         0.136209         1.239279
 C         3.229519         0.490729         0.121363
 C         2.529091        -0.350944        -0.996303
 C         2.595285         0.489813        -2.265216
 C         2.138965         1.914037        -1.811334
 C         2.259874         1.604421        -0.356742
 O         2.015744         2.775969         0.401342
 H        -0.449441         1.049017         0.766243
 H        -0.512071         0.534535        -0.916962
 H        -0.436290        -0.724641         0.434840
 H         4.347581         0.434490         0.223295
 H         2.730740        -1.374132        -1.038655
 H         3.608217         0.521201        -2.631874
 H         2.020351        -0.071379        -3.029259
 H         2.709253         2.742340        -2.172703
 H         1.097259         2.014067        -2.070908
 H         2.347487         2.688540         1.324559
