19
Iteration:    84charge 0 multiplicity 1
 C        -0.087564         0.047886         0.054921
 C         1.403022         0.323461        -0.086444
 O         2.259083         0.094867         1.122452
 C         3.273995         0.656749         0.222474
 C         2.486903        -0.254459        -0.947994
 C         2.458799         0.354273        -2.293049
 C         2.350598         1.840272        -1.852215
 C         2.361288         1.726332        -0.344324
 O         2.007244         2.881348         0.365287
 H        -0.699167         0.879218         0.638718
 H        -0.619911         0.174639        -0.974554
 H        -0.536040        -0.946664         0.344902
 H         4.283301         0.805017         0.684144
 H         2.600860        -1.312362        -0.863903
 H         3.453988         0.100037        -2.831426
 H         1.641891         0.029975        -2.915873
 H         3.231092         2.478713        -2.277891
 H         1.452727         2.378401        -2.058544
 H         1.856803         2.603621         1.276560
