19
Iteration:   185charge 0 multiplicity 1
 C        -0.114393         0.050465        -0.003070
 C         1.384480         0.351191        -0.033233
 O         2.296956         0.111525         1.226935
 C         3.135154         0.609039         0.088046
 C         2.501047        -0.267459        -0.939411
 C         2.530101         0.376469        -2.259265
 C         2.339313         1.885374        -1.807965
 C         2.274400         1.699480        -0.344102
 O         2.080923         2.846978         0.336542
 H        -0.772290         0.867569         0.579349
 H        -0.467653         0.243012        -0.983569
 H        -0.473186        -1.007746         0.341695
 H         4.229912         0.661472         0.080023
 H         2.672898        -1.344504        -0.844482
 H         3.524226         0.287677        -2.755709
 H         1.758285         0.038951        -2.968819
 H         3.199795         2.453351        -2.284125
 H         1.432083         2.397367        -2.022951
 H         2.137483         2.754887         1.302533
