19
Iteration:   222
 C         0.008996        -0.073032        -0.028434
 C         1.375839         0.423459        -0.034293
 O         2.210266         0.165264         1.257450
 C         3.162254         0.453300         0.148959
 C         2.521660        -0.246629        -0.931630
 C         2.364353         0.387743        -2.299379
 C         2.411916         1.922284        -1.938561
 C         2.307821         1.793248        -0.317846
 O         2.100971         2.941067         0.390601
 H        -0.593506         0.471399         0.593412
 H        -0.311285         0.001570        -1.134962
 H        -0.007984        -1.077929         0.244454
 H         4.210917         0.319896         0.428296
 H         2.520639        -1.397258        -0.884224
 H         3.185916         0.176833        -2.927269
 H         1.449769        -0.149745        -2.763671
 H         3.268395         2.383360        -2.320928
 H         1.351544         2.293401        -2.205733
 H         2.000785         2.510506         1.289738
