19
Iteration:  4815charge 0 multiplicity 1
 C        -0.081162         0.000869        -0.081026
 C         1.350391         0.327679        -0.153191
 O         2.217920         0.102393         1.268571
 C         3.225972         0.613929         0.149381
 C         2.576170        -0.289496        -0.895077
 C         2.438550         0.395324        -2.236360
 C         2.282695         1.966034        -1.881254
 C         2.282064         1.694155        -0.357112
 O         2.164763         2.858896         0.397601
 H        -0.620141         0.780114         0.417238
 H        -0.639808        -0.017935        -1.010090
 H        -0.253570        -0.822005         0.477547
 H         4.243487         0.765776         0.513769
 H         2.683257        -1.416408        -0.879404
 H         3.193806         0.408513        -3.015144
 H         1.554078        -0.059745        -2.664628
 H         3.073900         2.496095        -2.254470
 H         1.324644         2.376926        -2.268799
 H         2.312796         2.749609         1.352405
