19
Iteration:  3153
 C        -0.018122         0.267554         0.233633
 C         1.440975         0.392727         0.000255
 O         2.307889         0.098787         1.114236
 C         3.257143         0.539665         0.108404
 C         2.515978        -0.269569        -1.028319
 C         2.627170         0.242251        -2.403039
 C         2.406999         1.941852        -1.872192
 C         2.218337         1.679143        -0.333435
 O         1.706062         2.756056         0.391398
 H        -0.253986         1.257107         0.767682
 H        -0.319820         0.418579        -0.814357
 H        -0.375614        -0.581021         0.687840
 H         4.324770         0.509540         0.391808
 H         2.666657        -1.333617        -0.837000
 H         3.631995         0.007676        -2.787777
 H         1.778793         0.050295        -3.038604
 H         3.244292         2.646993        -2.019712
 H         1.583389         2.308455        -2.355572
 H         1.990754         2.652164         1.316492
