19
Iteration:  3493
 C        -0.086525         0.231413         0.247376
 C         1.378957         0.356636        -0.096031
 O         2.342972         0.056536         1.147830
 C         3.073612         0.555926         0.087346
 C         2.501399        -0.319628        -1.044431
 C         2.767417         0.334757        -2.277423
 C         2.308217         1.874914        -1.912892
 C         2.222312         1.751876        -0.345367
 O         1.902586         2.835608         0.410131
 H        -0.460613         0.825252         1.068038
 H        -0.578526         0.562565        -0.633015
 H        -0.481149        -0.842724         0.381425
 H         4.218831         0.503919         0.165041
 H         2.564524        -1.415582        -0.902704
 H         3.798092         0.314374        -2.568188
 H         2.293436        -0.018293        -3.180742
 H         3.153474         2.592030        -2.238886
 H         1.389590         2.136399        -2.430269
 H         2.070532         2.778235         1.376315
