19
Iteration:  4631
 C        -0.036469         0.073484        -0.040696
 C         1.428742         0.392403        -0.155488
 O         2.237388         0.167952         1.205885
 C         3.220307         0.656966         0.231633
 C         2.510061        -0.298011        -0.960920
 C         2.392330         0.317312        -2.366704
 C         2.386927         1.865653        -1.901686
 C         2.260890         1.675382        -0.290224
 O         2.063095         2.834261         0.480990
 H        -0.416725         0.883527         0.665104
 H        -0.650716         0.088145        -0.983927
 H        -0.073833        -0.826969         0.481673
 H         4.269184         0.762964         0.555667
 H         2.615096        -1.419904        -0.807049
 H         3.256303         0.175318        -2.961026
 H         1.557482         0.204413        -3.051153
 H         3.263861         2.477516        -2.293014
 H         1.454627         2.184023        -2.227485
 H         1.852051         2.383839         1.311897
