19
Iteration:  1353
 C        -0.013241         0.254805         0.133700
 C         1.419688         0.305839        -0.072195
 O         2.329460         0.205149         1.185914
 C         3.196708         0.515912         0.072912
 C         2.484450        -0.369330        -1.027759
 C         2.606419         0.401712        -2.284133
 C         2.299839         1.821440        -1.852220
 C         2.159950         1.621343        -0.362957
 O         1.975252         2.847317         0.384822
 H        -0.372931         1.045139         0.772658
 H        -0.470407         0.413268        -0.774581
 H        -0.356579        -0.728506         0.522020
 H         4.344322         0.488482         0.340388
 H         2.687035        -1.395209        -0.862125
 H         3.616341         0.462430        -2.548678
 H         1.987258        -0.056947        -3.039816
 H         2.902023         2.704791        -2.140083
 H         1.289824         2.147143        -2.067452
 H         1.540261         2.601179         1.242371
