19
Iteration:  2959
 C        -0.043353         0.252331         0.068347
 C         1.476333         0.308383        -0.050481
 O         2.242897         0.211330         1.203933
 C         3.287955         0.560782         0.167825
 C         2.599643        -0.324046        -0.976494
 C         2.463252         0.397067        -2.357783
 C         2.343586         1.831590        -1.878989
 C         2.221105         1.582404        -0.419642
 O         1.885283         2.779643         0.422138
 H        -0.393979         1.059394         0.728802
 H        -0.519724         0.315192        -0.913535
 H        -0.291196        -0.665040         0.525705
 H         4.289193         0.804577         0.603005
 H         2.690950        -1.406173        -1.032523
 H         3.424051         0.220241        -2.864640
 H         1.681950         0.123237        -3.008163
 H         3.222793         2.415260        -1.927272
 H         1.532985         2.516076        -2.277452
 H         2.012117         2.598385         1.382613
