19
Iteration:  2070charge 0 multiplicity 1
 C        -0.087632         0.262452         0.008663
 C         1.381122         0.348815        -0.111787
 O         2.408800         0.057072         1.163235
 C         3.224320         0.576626         0.091927
 C         2.470130        -0.313265        -0.926046
 C         2.502663         0.437898        -2.294004
 C         2.336738         1.856457        -1.849941
 C         2.237588         1.725078        -0.359304
 O         1.965188         2.743151         0.483828
 H        -0.444763         0.969414         0.788313
 H        -0.563897         0.489658        -1.011627
 H        -0.356820        -0.697618         0.566964
 H         4.338134         0.599240         0.287440
 H         2.715691        -1.283556        -0.986337
 H         3.517406         0.236891        -2.789042
 H         1.798050         0.000389        -2.955363
 H         3.143645         2.440092        -2.197208
 H         1.384098         2.317423        -2.251065
 H         1.595107         2.534423         1.351110
