19
Iteration:  3815charge 0 multiplicity 1
 C        -0.112629         0.002573         0.105712
 C         1.320203         0.298391        -0.090974
 O         2.305702         0.143253         1.173258
 C         3.149029         0.505535         0.148514
 C         2.484696        -0.279304        -0.938017
 C         2.569786         0.556368        -2.306747
 C         2.389302         1.970157        -1.890180
 C         2.219549         1.646948        -0.402767
 O         2.059054         2.792624         0.413353
 H        -0.652355         0.841426         0.691106
 H        -0.637651        -0.004158        -0.871707
 H        -0.283807        -0.938586         0.525492
 H         4.230162         0.594536         0.323195
 H         2.617245        -1.401103        -0.916455
 H         3.536599         0.508886        -2.888428
 H         1.855703         0.176594        -2.960973
 H         3.209881         2.640303        -1.880069
 H         1.621091         2.683626        -2.408678
 H         2.312478         2.656040         1.362428
