19
Iteration:  3086
 C        -0.002065        -0.112920        -0.108955
 C         1.386656         0.403400        -0.077294
 O         2.268601         0.202201         1.232218
 C         3.158577         0.503023         0.145641
 C         2.425631        -0.265546        -0.886055
 C         2.468801         0.311230        -2.223308
 C         2.201901         1.916874        -1.872326
 C         2.271422         1.773004        -0.433757
 O         2.164371         2.941014         0.419146
 H        -0.667256         0.355381         0.723733
 H        -0.534862         0.215034        -1.057601
 H         0.105486        -1.152551        -0.001035
 H         4.233469         0.601631         0.294586
 H         2.746288        -1.364545        -0.850005
 H         3.517849         0.389781        -2.517423
 H         1.685659        -0.303496        -2.785811
 H         3.058703         2.619170        -2.145754
 H         1.295403         2.357162        -2.039256
 H         2.584801         2.793671         1.298906
