19
Iteration:  3799charge 0 multiplicity 1
 C        -0.151898        -0.100848         0.127829
 C         1.386038         0.361370        -0.016081
 O         2.143329         0.080861         1.140827
 C         3.187326         0.639338         0.065688
 C         2.464555        -0.255250        -1.017054
 C         2.556257         0.436836        -2.335918
 C         2.465408         2.006518        -1.801250
 C         2.216771         1.718472        -0.321440
 O         2.130473         2.858191         0.390656
 H        -0.731469         0.597096         0.681639
 H        -0.608506        -0.344265        -0.851450
 H        -0.090084        -1.115137         0.692225
 H         4.228299         0.732697         0.439864
 H         2.726906        -1.293019        -1.088444
 H         3.465281         0.160656        -2.870965
 H         1.630374         0.326774        -3.029782
 H         3.430597         2.511289        -2.128025
 H         1.603636         2.425818        -2.172032
 H         2.352551         2.444918         1.269552
