19
Iteration:    28charge 0 multiplicity 1
 C        -0.128827        -0.131957        -0.037262
 C         1.329163         0.431086        -0.051129
 O         2.349912         0.226459         1.246805
 C         3.160536         0.576587         0.133473
 C         2.446794        -0.274337        -0.882441
 C         2.452229         0.359028        -2.302967
 C         2.391269         1.868386        -1.984522
 C         2.224728         1.766569        -0.361312
 O         2.140144         2.907925         0.479463
 H        -0.901562         0.334865         0.653373
 H        -0.525444        -0.044980        -1.216843
 H        -0.151465        -1.233601         0.170995
 H         4.251050         0.573157         0.358324
 H         2.722635        -1.341533        -0.694101
 H         3.472174         0.110560        -2.739795
 H         1.713020        -0.001813        -3.079592
 H         3.304218         2.460641        -2.304830
 H         1.519734         2.446918        -2.440107
 H         2.132471         2.557211         1.382711
