19
Iteration:  4734charge 0 multiplicity 1
 C        -0.053596         0.316121         0.176090
 C         1.377113         0.306869        -0.059021
 O         2.208587         0.120532         1.182225
 C         3.211738         0.608370         0.075253
 C         2.549133        -0.350446        -0.984385
 C         2.657064         0.415848        -2.388411
 C         2.392643         1.858717        -1.854322
 C         2.175396         1.593519        -0.372185
 O         1.911972         2.775785         0.403352
 H        -0.285815         1.066541         0.942960
 H        -0.724405         0.324802        -0.663638
 H        -0.325796        -0.756822         0.540882
 H         4.199685         0.547403         0.510312
 H         2.921788        -1.350969        -0.963191
 H         3.697854         0.465942        -2.797397
 H         1.965536         0.063609        -3.202366
 H         3.163129         2.671420        -2.068805
 H         1.406784         2.347803        -2.189445
 H         2.216446         2.429879         1.270534
