19
Iteration:  3283
 C        -0.050103         0.068099        -0.000571
 C         1.438609         0.382862        -0.041376
 O         2.252547         0.069893         1.173921
 C         3.265983         0.618971         0.093649
 C         2.564117        -0.293412        -0.886247
 C         2.372335         0.297151        -2.245584
 C         2.435249         1.877336        -1.877789
 C         2.239170         1.761131        -0.348278
 O         1.988312         2.919102         0.384626
 H        -0.528014         0.526212         0.952015
 H        -0.497806         0.510086        -0.937056
 H        -0.127481        -0.979734         0.101617
 H         4.281023         0.681801         0.482105
 H         2.539365        -1.363862        -0.776308
 H         3.170797         0.095212        -2.970305
 H         1.518824        -0.089622        -2.832379
 H         3.336709         2.439379        -2.364215
 H         1.554515         2.331933        -2.289649
 H         1.603575         2.626322         1.242131
