19
Iteration:  4314charge 0 multiplicity 1
 C        -0.038795        -0.046020        -0.015883
 C         1.412762         0.381762         0.044945
 O         2.237638         0.208919         1.156823
 C         3.190201         0.577954         0.104095
 C         2.508757        -0.328534        -0.917782
 C         2.410169         0.461432        -2.230895
 C         2.378530         1.902050        -1.821848
 C         2.243004         1.689559        -0.406946
 O         2.099200         2.848007         0.402010
 H        -0.824772         0.602039         0.442916
 H        -0.252518         0.261925        -1.129496
 H        -0.275146        -1.125417         0.019933
 H         4.269345         0.650103         0.406843
 H         2.733001        -1.439913        -0.966587
 H         3.149309         0.239436        -2.935714
 H         1.533560         0.045532        -2.784440
 H         3.294392         2.446445        -2.263843
 H         1.624931         2.506480        -2.165996
 H         1.991194         2.393815         1.242407
