19
Iteration:  4513charge 0 multiplicity 1
 C        -0.083876         0.040588        -0.057131
 C         1.463100         0.363188         0.036455
 O         2.275486         0.210286         1.196744
 C         3.230478         0.630120         0.053416
 C         2.484667        -0.347693        -0.878964
 C         2.516051         0.353318        -2.257002
 C         2.293340         1.951583        -1.869822
 C         2.185935         1.702725        -0.373149
 O         2.073754         2.781691         0.411171
 H        -0.829783         0.683510         0.514722
 H        -0.275800         0.394935        -1.040711
 H        -0.542147        -0.926293        -0.018879
 H         4.256379         0.513805         0.371469
 H         2.634274        -1.448581        -0.879387
 H         3.426685         0.388833        -2.804760
 H         1.714338        -0.097492        -2.845592
 H         3.298095         2.525623        -2.109980
 H         1.438589         2.441763        -2.213311
 H         2.103742         2.472454         1.327389
