19
Iteration:  2268
 C        -0.055450         0.251905         0.008259
 C         1.412923         0.329388        -0.197080
 O         2.228065         0.198626         1.145608
 C         3.279603         0.555537         0.173615
 C         2.586044        -0.371276        -0.929632
 C         2.594466         0.398316        -2.264643
 C         2.100663         1.924177        -1.793119
 C         2.236747         1.622270        -0.398966
 O         2.074739         2.708743         0.431859
 H        -0.013538         1.122905         0.733246
 H        -0.756764         0.453910        -0.751165
 H        -0.354888        -0.651924         0.572258
 H         4.328641         0.679123         0.566012
 H         2.504240        -1.387710        -1.016993
 H         3.676958         0.635174        -2.555382
 H         2.120557        -0.078721        -3.101886
 H         2.740242         2.688800        -2.182093
 H         1.037242         2.080012        -2.187501
 H         1.900644         2.553526         1.367555
