19
Iteration:  4348charge 0 multiplicity 1
 C        -0.044216         0.135346        -0.063097
 C         1.396111         0.420205        -0.105782
 O         2.367297         0.063496         1.190093
 C         3.202257         0.582000         0.127582
 C         2.503386        -0.323562        -0.947918
 C         2.491976         0.359356        -2.269254
 C         2.270289         1.812514        -1.824462
 C         2.205074         1.739283        -0.325332
 O         2.009264         2.898977         0.453541
 H        -0.646727         0.994744         0.392258
 H        -0.436675         0.047675        -1.165253
 H        -0.322279        -0.760287         0.445465
 H         4.294910         0.777079         0.214637
 H         2.711688        -1.441252        -0.869870
 H         3.460326         0.390326        -2.704382
 H         1.712121        -0.159001        -2.862424
 H         3.176957         2.440913        -2.189647
 H         1.377050         2.177516        -2.146410
 H         2.235693         2.576048         1.359207
