19
Iteration:  2397charge 0 multiplicity 1
 C        -0.102317         0.064944        -0.012157
 C         1.379760         0.301492         0.006498
 O         2.316829         0.216788         1.261584
 C         3.142198         0.505759         0.064539
 C         2.503275        -0.311083        -0.976358
 C         2.477171         0.391528        -2.309345
 C         2.396633         1.940001        -1.844541
 C         2.186521         1.702954        -0.356459
 O         2.053633         2.848271         0.427250
 H        -0.714187         0.719757         0.566905
 H        -0.457393         0.242569        -1.055202
 H        -0.264025        -1.047483         0.244302
 H         4.197451         0.658646         0.343778
 H         2.586303        -1.378785        -0.980082
 H         3.512285         0.296349        -2.812466
 H         1.763392         0.012289        -2.969492
 H         3.346075         2.299076        -2.129465
 H         1.624179         2.520847        -2.474283
 H         2.561929         2.635814         1.255196
