19
Iteration:  4551charge 0 multiplicity 1
 C        -0.069280         0.240042         0.190511
 C         1.364901         0.362782        -0.056604
 O         2.180147         0.129793         1.073829
 C         3.258431         0.525509         0.102933
 C         2.590918        -0.311512        -0.986295
 C         2.693750         0.347888        -2.321847
 C         2.265752         1.876915        -1.854976
 C         2.286876         1.666960        -0.355200
 O         1.911861         2.811002         0.430017
 H        -0.316823         1.105386         0.778174
 H        -0.514284         0.197380        -0.871378
 H        -0.129401        -0.748451         0.771692
 H         4.341882         0.646436         0.348074
 H         2.506881        -1.369446        -0.744753
 H         3.701825         0.409981        -2.895787
 H         1.933764        -0.040453        -3.041232
 H         2.973263         2.560664        -2.178556
 H         1.313577         2.372931        -2.310070
 H         1.902301         2.450743         1.325527
