19
Iteration:   309charge 0 multiplicity 1
 C        -0.012436         0.339180         0.154704
 C         1.518541         0.351317        -0.088488
 O         2.196650         0.023007         1.187651
 C         3.303963         0.536142         0.076274
 C         2.544522        -0.313372        -0.969787
 C         2.636264         0.396948        -2.332784
 C         2.231730         1.797614        -1.865227
 C         2.226464         1.696390        -0.381649
 O         1.882848         2.856541         0.410679
 H        -0.230011         1.114554         0.871606
 H        -0.731628         0.492839        -0.779063
 H        -0.307405        -0.613167         0.550030
 H         4.305146         0.224539         0.402620
 H         2.701688        -1.478532        -0.880774
 H         3.617911         0.556754        -2.643577
 H         1.979545        -0.109811        -3.147982
 H         3.046780         2.446964        -2.137572
 H         1.260911         2.221631        -2.338439
 H         1.581070         2.561989         1.280290
