19
Iteration:  1135charge 0 multiplicity 1
 C        -0.104937        -0.069552        -0.039277
 C         1.378649         0.358925        -0.033896
 O         2.239399         0.243121         1.304925
 C         3.196851         0.595212         0.084761
 C         2.577375        -0.256565        -0.976907
 C         2.366883         0.436824        -2.314644
 C         2.351902         1.872716        -1.833037
 C         2.283878         1.656038        -0.346520
 O         2.155251         2.855614         0.363815
 H        -0.750316         0.497589         0.643608
 H        -0.486456         0.118830        -1.086038
 H        -0.189420        -1.167823         0.263453
 H         4.282811         0.567545         0.416090
 H         2.617886        -1.310878        -0.797868
 H         3.234284         0.123728        -2.945164
 H         1.516075         0.147512        -2.855590
 H         3.277343         2.328892        -2.064313
 H         1.553232         2.497146        -2.187976
 H         1.913984         2.645751         1.299646
