19
Iteration:  4738
 C        -0.069167         0.300718         0.179863
 C         1.386685         0.313643        -0.043276
 O         2.206904         0.136629         1.183893
 C         3.235304         0.588576         0.057452
 C         2.544813        -0.360075        -1.004005
 C         2.683759         0.416445        -2.396462
 C         2.382492         1.864626        -1.837314
 C         2.199792         1.602699        -0.389659
 O         1.886852         2.777973         0.422631
 H        -0.380962         1.052102         0.876669
 H        -0.766677         0.370085        -0.684037
 H        -0.359439        -0.605007         0.593673
 H         4.279212         0.550552         0.401332
 H         2.883578        -1.428585        -0.988392
 H         3.691817         0.356735        -2.825401
 H         1.931507         0.113446        -3.095883
 H         3.125936         2.548215        -2.007088
 H         1.443114         2.301036        -2.243636
 H         2.166883         2.527300         1.334940
