19
Iteration:  2750
 C        -0.122417        -0.062757        -0.020210
 C         1.428619         0.330114        -0.004856
 O         2.234250         0.251046         1.217597
 C         3.209456         0.554690         0.086949
 C         2.369257        -0.305297        -0.943837
 C         2.601702         0.350508        -2.340109
 C         2.223187         1.925425        -1.823474
 C         2.273689         1.747467        -0.344375
 O         2.176215         2.878214         0.415120
 H        -0.733825         0.715007         0.576855
 H        -0.422085         0.023973        -1.083679
 H        -0.274869        -1.005065         0.447203
 H         4.304422         0.392229         0.418784
 H         2.630331        -1.422382        -0.957932
 H         3.697756         0.369061        -2.745763
 H         1.933826         0.134362        -3.154074
 H         2.882946         2.702312        -2.072932
 H         1.273161         2.209061        -2.314857
 H         2.226373         2.482099         1.314609
