19
Iteration:    89charge 0 multiplicity 1
 C        -0.090380         0.096476         0.038546
 C         1.414980         0.337132        -0.074072
 O         2.263338         0.069371         1.113617
 C         3.273500         0.686651         0.163116
 C         2.449088        -0.294902        -0.932063
 C         2.495011         0.339477        -2.288164
 C         2.401741         1.854790        -1.827682
 C         2.309260         1.714485        -0.317885
 O         1.980859         2.874154         0.372806
 H        -0.501733         0.883107         0.627514
 H        -0.479683         0.256564        -0.920592
 H        -0.357492        -0.889824         0.436691
 H         4.308043         0.870008         0.456388
 H         2.613927        -1.399281        -0.810681
 H         3.401661         0.119676        -2.770040
 H         1.636594         0.066443        -2.956288
 H         3.115595         2.527796        -2.232689
 H         1.358432         2.157512        -2.212878
 H         1.848062         2.645659         1.325176
