19
Iteration:  1525
 C         0.025127         0.172404         0.152937
 C         1.378970         0.459599        -0.022248
 O         2.239254         0.054966         1.206939
 C         3.199128         0.525037         0.089993
 C         2.450338        -0.303253        -0.948402
 C         2.667518         0.382292        -2.307146
 C         2.280520         1.900129        -1.961853
 C         2.184680         1.682132        -0.377608
 O         2.015030         2.836183         0.375759
 H        -0.570218         0.839849         0.781281
 H        -0.575420         0.151587        -0.865392
 H         0.024488        -0.875970         0.609360
 H         4.155416         0.546260         0.434300
 H         2.425298        -1.411264        -0.926348
 H         3.682962         0.138314        -2.671449
 H         2.053979        -0.015711        -3.161189
 H         3.006729         2.722099        -2.243481
 H         1.278349         2.203415        -2.274959
 H         2.099124         2.766777         1.354339
