19
Iteration:  1054charge 0 multiplicity 1
 C        -0.073453         0.239411         0.113780
 C         1.437362         0.289486        -0.010832
 O         2.251949         0.153266         1.191767
 C         3.217305         0.517009         0.061063
 C         2.541421        -0.350744        -0.999805
 C         2.608959         0.485991        -2.272602
 C         2.269570         1.878015        -1.834898
 C         2.257986         1.595740        -0.372693
 O         1.931125         2.821033         0.355161
 H        -0.307178         1.118173         0.761156
 H        -0.461871         0.338536        -0.969618
 H        -0.311674        -0.729279         0.535731
 H         4.333603         0.516402         0.128253
 H         2.781225        -1.445005        -1.061137
 H         3.508746         0.301310        -2.680589
 H         1.860135         0.078348        -2.992644
 H         3.162780         2.537691        -2.054300
 H         1.375522         2.465422        -2.056367
 H         1.901456         2.511378         1.298581
