19
Iteration:   886charge 0 multiplicity 1
 C        -0.029862         0.148892         0.043477
 C         1.436656         0.459726        -0.080559
 O         2.274019         0.112131         1.153652
 C         3.235093         0.540099         0.168356
 C         2.489352        -0.346877        -0.947546
 C         2.541329         0.399379        -2.326213
 C         2.293152         1.927319        -1.874427
 C         2.224114         1.689350        -0.360298
 O         1.969227         2.796500         0.446592
 H        -0.540981         0.861000         0.749368
 H        -0.571367         0.132806        -0.957237
 H        -0.186473        -0.934812         0.417900
 H         4.285304         0.482851         0.430399
 H         2.370604        -1.487977        -0.865787
 H         3.447183         0.129983        -2.802232
 H         1.791953        -0.080716        -3.019344
 H         3.291396         2.481284        -2.098756
 H         1.496535         2.605579        -2.397370
 H         2.329443         2.603241         1.335358
