19
Iteration:  3516
 C        -0.014029         0.279337         0.144517
 C         1.486664         0.384518        -0.026476
 O         2.190140         0.076379         1.173587
 C         3.292628         0.433881         0.077380
 C         2.502565        -0.289913        -1.004179
 C         2.709652         0.437054        -2.298386
 C         2.223389         1.858959        -1.841802
 C         2.233622         1.674266        -0.389039
 O         1.876183         2.773832         0.343729
 H        -0.152423         1.061660         0.832216
 H        -0.623245         0.572367        -0.671844
 H        -0.530733        -0.682197         0.581063
 H         4.299769         0.726033         0.538075
 H         2.571129        -1.344294        -0.692283
 H         3.742395         0.399136        -2.586446
 H         2.251821         0.133199        -3.216871
 H         2.769006         2.760803        -2.192996
 H         1.168972         1.893553        -2.228680
 H         2.109897         2.674398         1.278998
