19
Iteration:  4525charge 0 multiplicity 1
 C        -0.051851         0.117403        -0.033744
 C         1.373684         0.285770        -0.038844
 O         2.295215         0.227333         1.233444
 C         3.231313         0.527879         0.167934
 C         2.475444        -0.278789        -0.920866
 C         2.542066         0.447488        -2.293184
 C         2.282130         1.881695        -1.914394
 C         2.233283         1.652028        -0.397784
 O         2.033324         2.787880         0.427081
 H        -0.370513         0.860782         0.779126
 H        -0.402257         0.327898        -1.001094
 H        -0.225009        -0.945719         0.266456
 H         4.250312         0.821661         0.333333
 H         2.500377        -1.361108        -0.857151
 H         3.521480         0.152488        -2.726105
 H         1.797563         0.119026        -3.029808
 H         3.123348         2.633283        -2.211979
 H         1.413121         2.292258        -2.408093
 H         1.987750         2.398357         1.330312
