19
Iteration:    70
 C        -0.106711        -0.025215         0.004186
 C         1.422149         0.325205        -0.027163
 O         2.191929         0.181437         1.244939
 C         3.179977         0.517922         0.248553
 C         2.613114        -0.289533        -0.927001
 C         2.418873         0.436997        -2.342228
 C         2.321373         1.917533        -1.904794
 C         2.295323         1.733628        -0.372635
 O         2.114112         2.897194         0.331407
 H        -0.562155         0.598394         0.720111
 H        -0.509554         0.080458        -1.097983
 H        -0.053414        -1.024660         0.381776
 H         4.219747         0.404348         0.577633
 H         2.827093        -1.399319        -0.946279
 H         3.212570         0.350426        -3.067457
 H         1.488867        -0.067427        -2.777242
 H         3.226062         2.382197        -2.222689
 H         1.454001         2.583886        -2.331819
 H         1.958604         2.585776         1.266769
