19
Iteration:  3390
 C        -0.069724         0.068328        -0.040642
 C         1.398553         0.287172         0.008356
 O         2.261487         0.214332         1.223939
 C         3.240525         0.533202         0.119227
 C         2.510381        -0.376446        -0.926968
 C         2.491070         0.391987        -2.265196
 C         2.239575         1.917776        -1.830080
 C         2.268880         1.679358        -0.352392
 O         2.096898         2.887778         0.351251
 H        -0.614243         0.978490         0.290402
 H        -0.311761        -0.028408        -1.139902
 H        -0.448593        -0.823097         0.365594
 H         4.221744         0.746887         0.473574
 H         2.742529        -1.408520        -1.153877
 H         3.465333         0.317548        -2.777973
 H         1.676491        -0.040957        -2.878790
 H         3.066313         2.621942        -2.141889
 H         1.334141         2.433296        -2.221077
 H         2.071589         2.696487         1.307256
