19
Iteration:  3929charge 0 multiplicity 1
 C        -0.082081        -0.070259         0.065407
 C         1.353417         0.419029        -0.080138
 O         2.219932         0.126831         1.128758
 C         3.236705         0.504927         0.080467
 C         2.496354        -0.287928        -1.027472
 C         2.498292         0.424782        -2.291002
 C         2.434244         1.906248        -1.823815
 C         2.249786         1.754615        -0.370153
 O         2.088060         2.926351         0.533195
 H        -0.677778         0.451240         0.754120
 H        -0.549171         0.055274        -0.897322
 H        -0.005881        -1.138602         0.503907
 H         4.257604         0.282913         0.392159
 H         2.360597        -1.353075        -1.062696
 H         3.402427         0.378243        -2.910308
 H         1.692670         0.066586        -3.031513
 H         3.247794         2.719345        -2.021973
 H         1.563216         2.398834        -2.259777
 H         1.431504         2.621701         1.174291
