19
Iteration:   432
 C        -0.153215         0.061997         0.040766
 C         1.370592         0.357689        -0.041761
 O         2.351001         0.007256         1.219298
 C         3.227828         0.648047         0.170793
 C         2.459376        -0.278270        -0.931123
 C         2.464348         0.360272        -2.354846
 C         2.397012         1.959775        -1.911305
 C         2.255933         1.697575        -0.335858
 O         2.051267         2.901674         0.363400
 H        -0.660691         0.656938         0.791297
 H        -0.654576         0.080861        -0.911394
 H        -0.298707        -1.010137         0.372984
 H         4.299154         0.759342         0.422977
 H         2.452484        -1.289988        -0.893485
 H         3.453881        -0.031933        -2.819136
 H         1.654482        -0.030737        -2.922990
 H         3.445847         2.307065        -2.086227
 H         1.588526         2.620549        -2.379511
 H         1.910399         2.855286         1.330949
