19
Iteration:     7charge 0 multiplicity 1
 C        -0.056938         0.078804         0.031651
 C         1.391877         0.357419        -0.033438
 O         2.281792         0.175398         1.228268
 C         3.230875         0.585417         0.132235
 C         2.499955        -0.304839        -0.929997
 C         2.592887         0.365495        -2.293741
 C         2.332965         1.884880        -1.906609
 C         2.213678         1.714028        -0.395825
 O         2.007503         2.841717         0.420737
 H        -0.608852         0.750555         0.753811
 H        -0.656804         0.097251        -0.914962
 H        -0.357295        -0.928902         0.390991
 H         4.335520         0.691621         0.256672
 H         2.423794        -1.408678        -1.004419
 H         3.412021         0.144013        -3.049222
 H         1.701152        -0.024023        -2.827484
 H         3.133854         2.606403        -2.268065
 H         1.445757         2.239195        -2.459611
 H         1.969185         2.532534         1.361200
