19
Iteration:  1594
 C        -0.101497         0.259714         0.050525
 C         1.452032         0.343814        -0.041283
 O         2.257808         0.161442         1.166737
 C         3.308429         0.510669         0.143789
 C         2.564962        -0.241724        -0.981791
 C         2.518126         0.324623        -2.351361
 C         2.349364         1.823425        -1.900641
 C         2.290457         1.684636        -0.301187
 O         1.881409         2.830275         0.446821
 H        -0.598317         0.899109         0.896270
 H        -0.749381         0.488675        -0.749337
 H        -0.260758        -0.844069         0.320226
 H         4.426332         0.463020         0.303687
 H         2.630290        -1.348355        -0.855517
 H         3.353617         0.066344        -2.993360
 H         1.641077        -0.178741        -2.910569
 H         3.099309         2.522359        -2.315603
 H         1.404055         2.083873        -2.436191
 H         2.130298         2.665498         1.377815
