19
Iteration:  2363
 C        -0.019745         0.003258         0.058664
 C         1.446739         0.424922        -0.118402
 O         2.178355         0.138285         1.211772
 C         3.156625         0.550400         0.158173
 C         2.552224        -0.288093        -1.013574
 C         2.312527         0.391996        -2.295147
 C         2.528357         1.911675        -1.885142
 C         2.337104         1.739792        -0.363097
 O         2.013833         2.861505         0.453686
 H        -0.376513         0.593546         0.849085
 H        -0.529608         0.029515        -0.942529
 H         0.035745        -1.119915         0.398595
 H         4.207295         0.647107         0.437977
 H         2.603955        -1.419405        -0.937917
 H         3.079416         0.067346        -3.054854
 H         1.330220         0.084505        -2.631464
 H         3.521810         2.056222        -2.248636
 H         1.803995         2.689412        -2.314650
 H         1.370187         2.718131         1.170472
