19
Iteration:  4039charge 0 multiplicity 1
 C        -0.042814         0.373557        -0.008033
 C         1.460489         0.248106        -0.077202
 O         2.276274         0.120702         1.151226
 C         3.261830         0.634503         0.079660
 C         2.552365        -0.306096        -1.011775
 C         2.541631         0.386804        -2.318631
 C         2.216553         1.847376        -1.800905
 C         2.297411         1.624210        -0.274445
 O         1.944306         2.722532         0.487985
 H        -0.362493         0.982361         0.781547
 H        -0.340073         0.708677        -1.014277
 H        -0.601412        -0.603695         0.201168
 H         4.267710         0.742912         0.510503
 H         2.888899        -1.315917        -0.993681
 H         3.496132         0.256751        -2.791535
 H         1.834273        -0.008295        -3.125505
 H         2.861532         2.775183        -2.144500
 H         1.206692         1.997768        -2.235534
 H         1.658737         2.407919         1.392153
