19
Iteration:   935charge 0 multiplicity 1
 C        -0.058413        -0.119577         0.066239
 C         1.308010         0.413696        -0.057304
 O         2.264584         0.062490         1.183949
 C         3.071182         0.566678         0.106821
 C         2.484388        -0.289921        -0.925150
 C         2.398158         0.483054        -2.311349
 C         2.496031         1.882064        -1.861329
 C         2.190240         1.738890        -0.371652
 O         2.218533         2.967984         0.394029
 H        -0.725344         0.399483         0.762755
 H        -0.655486        -0.250208        -0.874966
 H         0.123921        -1.131877         0.341937
 H         4.134838         0.912959         0.431097
 H         2.660484        -1.347128        -0.988464
 H         3.447313         0.072796        -2.819915
 H         1.593013         0.090540        -2.945524
 H         3.435373         2.408735        -1.927319
 H         1.797883         2.500628        -2.308124
 H         1.671684         2.907324         1.194388
