19
Iteration:  4476
 C        -0.018696        -0.012722        -0.071596
 C         1.442217         0.359136        -0.030439
 O         2.239631         0.119556         1.237624
 C         3.209010         0.600091         0.266717
 C         2.523288        -0.295134        -0.942232
 C         2.371354         0.386154        -2.320260
 C         2.311867         1.910850        -1.914793
 C         2.262039         1.791703        -0.375281
 O         2.098837         2.868913         0.389188
 H        -0.516615         0.523573         0.666337
 H        -0.211540         0.424820        -1.104616
 H        -0.088374        -1.084800        -0.019400
 H         4.252274         0.594207         0.694353
 H         2.481221        -1.392573        -0.703683
 H         3.195941        -0.082578        -2.849315
 H         1.533748        -0.013745        -2.913405
 H         3.172808         2.495813        -2.260241
 H         1.395850         2.485882        -2.297760
 H         2.044399         2.502547         1.285494
