19
Iteration:  3689
 C        -0.018212         0.389765         0.055616
 C         1.449775         0.306419        -0.108694
 O         2.296871         0.133554         1.186379
 C         3.294588         0.482986         0.105140
 C         2.555771        -0.350319        -0.983533
 C         2.672672         0.459378        -2.333207
 C         2.172783         1.838927        -1.831290
 C         2.244880         1.623153        -0.350479
 O         1.884796         2.733400         0.464559
 H        -0.273117         0.897915         0.967816
 H        -0.480023         0.901470        -0.767187
 H        -0.534142        -0.644011         0.197053
 H         4.295850         0.838096         0.368467
 H         2.380313        -1.431374        -0.995244
 H         3.683161         0.472103        -2.701438
 H         1.934155         0.058106        -3.092707
 H         2.933890         2.578714        -2.296704
 H         1.197206         2.091939        -2.139339
 H         1.379975         2.497116         1.271934
