19
Iteration:  3508charge 0 multiplicity 1
 C        -0.028345         0.304402         0.173706
 C         1.435272         0.405555        -0.047498
 O         2.243781         0.053662         1.132146
 C         3.307736         0.512964         0.129097
 C         2.426222        -0.341644        -0.969267
 C         2.746860         0.462548        -2.360423
 C         2.277727         1.783073        -1.895675
 C         2.173769         1.620799        -0.378948
 O         1.849851         2.853474         0.403456
 H        -0.194674         0.974244         1.024835
 H        -0.734467         0.540360        -0.667695
 H        -0.144122        -0.761528         0.456197
 H         4.353387         0.585229         0.484356
 H         2.491358        -1.440979        -0.915959
 H         3.884769         0.435840        -2.443175
 H         2.319720         0.025518        -3.275571
 H         2.826993         2.602074        -2.161440
 H         1.237204         2.081639        -2.273374
 H         2.267958         2.610989         1.254146
