19
Iteration:   715charge 0 multiplicity 1
 C        -0.037729         0.144903        -0.024022
 C         1.440867         0.374067        -0.039966
 O         2.303356         0.114293         1.211277
 C         3.180663         0.615181         0.092184
 C         2.489071        -0.301226        -0.977043
 C         2.496088         0.352237        -2.314574
 C         2.323367         1.834191        -1.859721
 C         2.211450         1.721857        -0.325369
 O         2.044650         2.844291         0.473340
 H        -0.570410         0.856012         0.653766
 H        -0.405673         0.239725        -0.979816
 H        -0.360031        -0.882128         0.314966
 H         4.225447         0.613373         0.356980
 H         2.594489        -1.365999        -1.072023
 H         3.484566         0.194988        -2.793902
 H         1.722922         0.008228        -3.030775
 H         3.174581         2.442843        -2.104934
 H         1.511910         2.316342        -2.371339
 H         1.698364         2.490664         1.329698
