19
Iteration:  2962charge 0 multiplicity 1
 C        -0.031392         0.271321         0.065956
 C         1.450251         0.324282        -0.043626
 O         2.256206         0.215655         1.198966
 C         3.303294         0.567315         0.153241
 C         2.598863        -0.336443        -0.964491
 C         2.475197         0.404361        -2.365913
 C         2.363331         1.856275        -1.871161
 C         2.202718         1.558917        -0.412319
 O         1.870931         2.747646         0.413241
 H        -0.409023         1.033690         0.697105
 H        -0.560613         0.377055        -0.882992
 H        -0.391530        -0.685874         0.634764
 H         4.284538         0.783757         0.566788
 H         2.778369        -1.393427        -0.907247
 H         3.421169         0.220706        -2.888782
 H         1.568510         0.117239        -3.026827
 H         3.250239         2.458559        -1.965743
 H         1.582896         2.464432        -2.265836
 H         1.977408         2.597206         1.369284
