19
Iteration:  1087charge 0 multiplicity 1
 C        -0.037184        -0.041402         0.083984
 C         1.354054         0.421145        -0.056332
 O         2.220929         0.130079         1.110625
 C         3.152794         0.641969         0.177361
 C         2.481629        -0.260077        -0.981667
 C         2.478020         0.338811        -2.317032
 C         2.403695         1.825586        -1.908569
 C         2.231383         1.708717        -0.373299
 O         2.115668         2.935757         0.471676
 H        -0.733134         0.446421         0.795237
 H        -0.699905        -0.034287        -0.869972
 H        -0.023445        -1.031368         0.467441
 H         4.234152         0.858328         0.326355
 H         2.706005        -1.380007        -0.941586
 H         3.293719         0.183866        -2.878979
 H         1.588914         0.090761        -2.924534
 H         3.486192         2.142025        -2.103428
 H         1.713618         2.614914        -2.185752
 H         2.160481         2.589529         1.372578
