19
Iteration:  2110charge 0 multiplicity 1
 C        -0.081410         0.286700         0.020631
 C         1.476097         0.303398        -0.055836
 O         2.263480         0.149602         1.162225
 C         3.212762         0.455035         0.105885
 C         2.604158        -0.312813        -1.011839
 C         2.565421         0.478894        -2.226771
 C         2.129434         1.862714        -1.804663
 C         2.272929         1.632225        -0.358875
 O         1.986634         2.782610         0.411719
 H        -0.328782         1.073523         0.695858
 H        -0.596164         0.563928        -0.969730
 H        -0.392490        -0.677133         0.365003
 H         4.233003         0.362385         0.450019
 H         2.893599        -1.474947        -1.115610
 H         3.622785         0.587395        -2.617411
 H         1.960881         0.058772        -3.058455
 H         2.808221         2.639123        -2.302009
 H         1.048559         2.056793        -2.020532
 H         2.479407         2.560540         1.237556
