19
Iteration:  2112
 C        -0.093600         0.277624         0.020092
 C         1.490142         0.312009        -0.088453
 O         2.270869         0.147226         1.190740
 C         3.210929         0.464815         0.110506
 C         2.581323        -0.326756        -1.011263
 C         2.566313         0.481348        -2.232812
 C         2.136301         1.883744        -1.803659
 C         2.270581         1.615595        -0.361192
 O         1.995266         2.782160         0.408331
 H        -0.366381         1.047134         0.695186
 H        -0.585676         0.583855        -0.985218
 H        -0.408060        -0.720285         0.411652
 H         4.286345         0.368074         0.369498
 H         2.847099        -1.396161        -1.096456
 H         3.674311         0.575810        -2.635622
 H         2.003937         0.021004        -3.018765
 H         2.772593         2.655883        -2.258538
 H         1.015192         2.030333        -2.046230
 H         2.442693         2.603074         1.251142
