19
Iteration:  4929charge 0 multiplicity 1
 C        -0.000869         0.311004         0.095351
 C         1.479090         0.361968         0.044369
 O         2.269991         0.056190         1.212573
 C         3.295454         0.592066         0.052014
 C         2.406654        -0.340517        -0.990132
 C         2.570873         0.438426        -2.383503
 C         2.376615         1.866566        -1.850048
 C         2.245012         1.667596        -0.328125
 O         1.821051         2.735426         0.358898
 H        -0.450359         0.897599         0.979922
 H        -0.367977         0.764938        -0.856096
 H        -0.418504        -0.760476         0.329338
 H         4.373452         0.567500         0.464777
 H         2.694295        -1.357457        -0.924677
 H         3.660701         0.281186        -2.599219
 H         1.972926         0.063058        -3.282461
 H         3.214590         2.671835        -2.082751
 H         1.506236         2.317358        -2.199027
 H         1.763640         2.261098         1.215018
