19
Iteration:  1672charge 0 multiplicity 1
 C         0.013433        -0.083498         0.044259
 C         1.381602         0.380450        -0.104684
 O         2.122042         0.166716         1.174053
 C         3.179200         0.560404         0.127998
 C         2.458281        -0.247913        -0.942372
 C         2.509349         0.421552        -2.275076
 C         2.277161         1.943441        -1.860182
 C         2.286112         1.728928        -0.356011
 O         2.188162         2.849799         0.382311
 H        -0.505854         0.748971         0.727204
 H        -0.580268        -0.061451        -0.842517
 H        -0.175777        -1.008258         0.582014
 H         4.252642         0.551470         0.590595
 H         2.482619        -1.293076        -0.882228
 H         3.483633         0.188879        -2.728667
 H         1.702529        -0.078522        -2.829887
 H         3.108742         2.509149        -2.207443
 H         1.318852         2.259305        -2.293223
 H         2.572882         2.628967         1.240210
