19
Iteration:   877
 C        -0.029940         0.215805         0.009811
 C         1.429450         0.404008        -0.039124
 O         2.287810         0.099695         1.147497
 C         3.295955         0.540113         0.075922
 C         2.455388        -0.225929        -0.905405
 C         2.576034         0.364068        -2.322172
 C         2.309592         1.813129        -1.892663
 C         2.183207         1.718582        -0.364755
 O         1.955865         2.779131         0.485641
 H        -0.486076         1.014119         0.679544
 H        -0.386294         0.352285        -0.970921
 H        -0.275716        -0.805485         0.430564
 H         4.301760         0.483899         0.350258
 H         2.480161        -1.302782        -0.882161
 H         3.493813         0.168383        -2.759523
 H         1.742640         0.005248        -3.024618
 H         3.028569         2.607707        -1.889931
 H         1.402074         2.261207        -2.300341
 H         2.050124         2.340131         1.366272
