19
Iteration:  1035
 C         0.012376         0.352770         0.053510
 C         1.471097         0.417950        -0.057970
 O         2.358810         0.102950         1.160335
 C         3.301122         0.466155         0.165301
 C         2.466048        -0.321082        -0.974747
 C         2.629742         0.357700        -2.338680
 C         2.235211         1.874536        -1.855260
 C         2.187471         1.653748        -0.359947
 O         1.829050         2.725597         0.425344
 H        -0.298227         1.198771         0.681646
 H        -0.611786         0.565378        -0.935306
 H        -0.472336        -0.462944         0.528949
 H         4.487717         0.532684         0.376195
 H         2.443385        -1.456000        -0.842260
 H         3.740564         0.456012        -2.717689
 H         2.053394         0.188687        -3.218993
 H         2.793566         2.689142        -2.246624
 H         1.225882         2.000671        -2.101293
 H         1.881280         2.544010         1.386649
