19
Iteration:  4853charge 0 multiplicity 1
 C        -0.124863        -0.033654        -0.065937
 C         1.407136         0.445854        -0.037073
 O         2.304963         0.211466         1.228942
 C         3.202561         0.436732         0.031391
 C         2.444350        -0.341554        -0.919241
 C         2.542107         0.404482        -2.280134
 C         2.316568         1.902498        -1.859642
 C         2.207516         1.738317        -0.301834
 O         2.118277         2.927135         0.432637
 H        -0.650562         0.438155         0.813831
 H        -0.601957         0.125650        -1.087306
 H        -0.047406        -1.221967         0.075106
 H         4.308823         0.582704         0.097222
 H         2.291050        -1.389280        -0.900424
 H         3.577192         0.200648        -2.615034
 H         1.716535        -0.059440        -2.888950
 H         3.233329         2.561179        -2.181558
 H         1.460095         2.460433        -2.190472
 H         1.886577         2.605069         1.354749
