19
Iteration:  3663
 C        -0.064743         0.198242         0.179912
 C         1.397955         0.315571        -0.013706
 O         2.252495         0.091626         1.148548
 C         3.265431         0.422899         0.089578
 C         2.485722        -0.268894        -0.977074
 C         2.720498         0.464578        -2.301313
 C         2.242453         1.943912        -1.869028
 C         2.212437         1.690721        -0.418082
 O         1.918306         2.807802         0.365201
 H        -0.521351         0.695744         1.113577
 H        -0.542140         0.655111        -0.718573
 H        -0.384147        -0.787836         0.241758
 H         4.292515         0.483870         0.373506
 H         2.562978        -1.371632        -1.070054
 H         3.855870         0.313865        -2.385228
 H         2.153515         0.064975        -3.126783
 H         3.043638         2.637376        -1.976902
 H         1.285260         2.257125        -2.354391
 H         2.284223         2.596764         1.264063
