19
Iteration:   857
 C        -0.095640         0.353815        -0.013589
 C         1.433394         0.299266        -0.044434
 O         2.361022         0.146717         1.184297
 C         3.202995         0.598584         0.054232
 C         2.555820        -0.460116        -0.950584
 C         2.592575         0.397990        -2.297300
 C         2.205956         1.862692        -1.872973
 C         2.260339         1.677225        -0.338857
 O         1.960931         2.744972         0.513631
 H        -0.440401         1.195668         0.651243
 H        -0.315452         0.550512        -0.992279
 H        -0.577707        -0.579365         0.278413
 H         4.248430         0.759031         0.239413
 H         2.732485        -1.484126        -0.990352
 H         3.626759         0.263991        -2.723693
 H         1.969831        -0.056489        -3.136003
 H         2.908525         2.626450        -2.271651
 H         1.283887         2.307743        -2.107953
 H         1.437759         2.532524         1.322882
