19
Iteration:   393
 C        -0.052686        -0.082463        -0.027895
 C         1.409470         0.416661        -0.122815
 O         2.210277         0.263783         1.203482
 C         3.238615         0.584630         0.149876
 C         2.483138        -0.300824        -0.941819
 C         2.347133         0.371186        -2.293915
 C         2.374611         1.945565        -1.867488
 C         2.280233         1.673378        -0.314936
 O         2.136971         2.809951         0.410725
 H        -0.591503         0.562897         0.742303
 H        -0.633783         0.007282        -0.960650
 H         0.042594        -1.083077         0.375998
 H         4.239493         0.815903         0.516563
 H         2.484439        -1.480206        -0.817669
 H         3.157511         0.240233        -2.997976
 H         1.443191        -0.013294        -2.851362
 H         3.364880         2.396523        -2.086206
 H         1.650476         2.644534        -2.208245
 H         2.208109         2.581179         1.355796
