19
Iteration:  2931charge 0 multiplicity 1
 C        -0.097804         0.015456        -0.034216
 C         1.413422         0.399885        -0.032362
 O         2.235812         0.095378         1.140277
 C         3.229884         0.582393         0.099453
 C         2.491745        -0.274192        -0.828923
 C         2.531990         0.358413        -2.261173
 C         2.264184         1.880981        -1.896186
 C         2.248911         1.676852        -0.365810
 O         2.135896         2.942227         0.401667
 H        -0.603120         0.671697         0.659999
 H        -0.531799         0.042870        -1.053409
 H        -0.073476        -1.147358         0.274573
 H         4.242937         0.700719         0.415082
 H         2.671998        -1.325758        -0.552171
 H         3.492527         0.097439        -2.707650
 H         1.744769         0.149910        -3.085133
 H         2.897753         2.802565        -2.160441
 H         1.252963         2.113401        -2.093632
 H         1.860922         2.762774         1.329441
