19
Iteration:   869charge 0 multiplicity 1
 C        -0.041223         0.276512        -0.001315
 C         1.442149         0.358814         0.007044
 O         2.309252         0.118706         1.162670
 C         3.244702         0.557073         0.024558
 C         2.482230        -0.276947        -0.979902
 C         2.573781         0.360890        -2.282290
 C         2.315158         1.840690        -1.867064
 C         2.184331         1.671710        -0.332281
 O         1.955419         2.778111         0.509323
 H        -0.516143         1.077230         0.592188
 H        -0.397035         0.462392        -0.989451
 H        -0.423103        -0.657471         0.332862
 H         4.344066         0.612214         0.191971
 H         2.698891        -1.281373        -0.791577
 H         3.628700         0.313618        -2.740434
 H         1.783767         0.059991        -2.989951
 H         3.051646         2.504872        -2.364045
 H         1.350575         1.936792        -2.270279
 H         1.717559         2.299810         1.326064
