19
Iteration:  1673
 C         0.005968        -0.075055         0.058072
 C         1.392793         0.380971        -0.095678
 O         2.119623         0.166254         1.182529
 C         3.166174         0.552791         0.119711
 C         2.464223        -0.242736        -0.945407
 C         2.512663         0.420203        -2.289549
 C         2.282618         1.942223        -1.855007
 C         2.279960         1.717862        -0.360150
 O         2.185540         2.845489         0.381120
 H        -0.517425         0.716202         0.729319
 H        -0.564830        -0.062425        -0.864529
 H        -0.171764        -0.975735         0.575806
 H         4.278937         0.570833         0.581680
 H         2.482482        -1.284598        -0.843531
 H         3.512426         0.241153        -2.770867
 H         1.724194        -0.050912        -2.841381
 H         3.104608         2.549062        -2.199778
 H         1.337499         2.245324        -2.352594
 H         2.562687         2.656962         1.249385
