19
Iteration:  1003
 C        -0.089206         0.340519         0.036608
 C         1.462967         0.332374        -0.019975
 O         2.278087         0.125703         1.100925
 C         3.252149         0.638150         0.119193
 C         2.620881        -0.359379        -0.973694
 C         2.555192         0.328806        -2.322719
 C         2.210537         1.821459        -1.863864
 C         2.161231         1.644708        -0.361333
 O         1.974156         2.748654         0.510537
 H        -0.257042         1.173382         0.655775
 H        -0.414399         0.610212        -1.022025
 H        -0.518661        -0.565792         0.381980
 H         4.350887         0.864790         0.397180
 H         2.891632        -1.443037        -0.784147
 H         3.703837         0.419085        -2.734569
 H         1.962229         0.041762        -3.164187
 H         2.970268         2.466654        -2.253635
 H         1.268197         2.273380        -2.147227
 H         1.805466         2.345865         1.387263
