19
Iteration:   317
 C        -0.103890         0.308257         0.153619
 C         1.486362         0.303567         0.008458
 O         2.194805         0.028136         1.171078
 C         3.324148         0.519116         0.105133
 C         2.624826        -0.315484        -0.956848
 C         2.604590         0.413976        -2.357850
 C         2.234808         1.863414        -1.946287
 C         2.224798         1.666615        -0.374488
 O         1.911563         2.849876         0.386271
 H        -0.240774         1.182090         0.876695
 H        -0.527816         0.561600        -0.847296
 H        -0.518233        -0.617602         0.612450
 H         4.334115         0.516497         0.521743
 H         2.613350        -1.462829        -0.936283
 H         3.631975         0.471908        -2.650099
 H         2.067710        -0.053340        -3.249664
 H         2.993310         2.559743        -2.119224
 H         1.290376         2.204189        -2.169246
 H         1.789869         2.613241         1.327472
