19
Iteration:  1607charge 0 multiplicity 1
 C        -0.107757         0.118188        -0.035374
 C         1.420683         0.360605        -0.082518
 O         2.339146         0.158199         1.187059
 C         3.222881         0.570820         0.089341
 C         2.492605        -0.381718        -0.889984
 C         2.467425         0.325808        -2.257956
 C         2.341160         1.889923        -1.829206
 C         2.313211         1.718020        -0.367174
 O         1.963704         2.868870         0.399665
 H        -0.401211         0.854122         0.747008
 H        -0.424661         0.439733        -0.978980
 H        -0.488331        -0.842376         0.190830
 H         4.367954         0.572684         0.364467
 H         2.653489        -1.427813        -0.828789
 H         3.338792         0.146606        -2.902092
 H         1.546479         0.111075        -2.784772
 H         3.125908         2.537777        -2.187319
 H         1.385147         2.445224        -2.009578
 H         2.136076         2.652980         1.344420
