19
Iteration:  2557charge 0 multiplicity 1
 C        -0.141624        -0.081827        -0.064136
 C         1.372512         0.298464         0.026781
 O         2.250816         0.135197         1.207606
 C         3.227565         0.633067         0.127529
 C         2.463725        -0.323069        -0.931507
 C         2.446615         0.423827        -2.319295
 C         2.385946         1.850769        -1.825447
 C         2.229749         1.718844        -0.337996
 O         2.205168         2.974261         0.403916
 H        -0.618312         0.647364         0.636211
 H        -0.464286         0.058570        -1.119546
 H        -0.283518        -1.115072         0.199184
 H         4.272328         0.754006         0.349732
 H         2.498429        -1.439083        -0.931926
 H         3.314221         0.290231        -2.898100
 H         1.533098         0.185952        -2.991005
 H         3.394940         2.387754        -2.102274
 H         1.613792         2.527320        -2.281908
 H         1.522946         2.857157         1.119696
