19
Iteration:  1616
 C        -0.012906         0.110250        -0.069699
 C         1.407891         0.325781        -0.033596
 O         2.344760         0.158394         1.202864
 C         3.196551         0.592369         0.098493
 C         2.467947        -0.394132        -0.877059
 C         2.399139         0.442028        -2.237197
 C         2.317696         1.894429        -1.807911
 C         2.214905         1.690781        -0.343014
 O         2.067484         2.851156         0.340514
 H        -0.668284         0.850362         0.588895
 H        -0.311828         0.382662        -1.061322
 H        -0.233481        -0.993590         0.066166
 H         4.257899         0.754370         0.430715
 H         2.578926        -1.471706        -0.672118
 H         3.307176         0.159127        -2.748053
 H         1.627923         0.019468        -2.954440
 H         3.223096         2.440954        -2.144935
 H         1.531023         2.445675        -2.346410
 H         2.085227         2.467477         1.258726
