19
Iteration:  4304
 C        -0.020565        -0.015294        -0.014605
 C         1.405488         0.312020        -0.042148
 O         2.139011         0.243200         1.207644
 C         3.226626         0.575554         0.062159
 C         2.544970        -0.271392        -0.929606
 C         2.407567         0.444767        -2.223527
 C         2.364930         1.939154        -1.859360
 C         2.257573         1.648127        -0.396522
 O         2.101697         2.804125         0.382323
 H        -0.449282         0.534613         0.884269
 H        -0.518163         0.149225        -1.011246
 H         0.106562        -1.018862         0.260902
 H         4.231976         0.638670         0.513302
 H         2.641022        -1.391307        -1.050557
 H         3.231702         0.190075        -2.827844
 H         1.434076         0.261660        -2.698647
 H         3.422324         2.392099        -1.983283
 H         1.604679         2.550729        -2.109056
 H         2.087665         2.488720         1.292162
