19
Iteration:   712
 C        -0.060958         0.164725        -0.027408
 C         1.435078         0.370974        -0.040892
 O         2.323894         0.115466         1.238282
 C         3.153056         0.606379         0.066152
 C         2.514902        -0.329270        -0.979495
 C         2.519791         0.368496        -2.304589
 C         2.322831         1.846983        -1.834731
 C         2.228895         1.699030        -0.357346
 O         2.025060         2.853589         0.468252
 H        -0.523088         0.877437         0.628032
 H        -0.423845         0.285336        -1.072408
 H        -0.353752        -0.839057         0.330540
 H         4.192588         0.561339         0.347162
 H         2.636264        -1.491925        -1.117422
 H         3.460264         0.216029        -2.787430
 H         1.618288         0.009929        -3.028235
 H         3.141408         2.549804        -2.050180
 H         1.377820         2.196591        -2.328736
 H         1.818161         2.547893         1.388511
