19
Iteration:  1418charge 0 multiplicity 1
 C        -0.024693         0.240497         0.154812
 C         1.446231         0.297658        -0.034129
 O         2.246008         0.139046         1.169456
 C         3.203058         0.608578         0.070946
 C         2.557260        -0.355352        -0.873320
 C         2.519367         0.406630        -2.337139
 C         2.289601         1.907063        -1.854942
 C         2.171471         1.619616        -0.377541
 O         2.024376         2.774512         0.307732
 H        -0.429418         0.947677         0.845675
 H        -0.404467         0.354616        -0.806230
 H        -0.346194        -0.793793         0.428279
 H         4.243223         0.828391         0.471759
 H         2.663949        -1.421557        -0.891748
 H         3.545798         0.271636        -2.586523
 H         1.816766         0.177328        -3.175539
 H         3.198749         2.560866        -2.004472
 H         1.423473         2.388221        -2.279881
 H         1.899102         2.512222         1.244066
