19
Iteration:  4322charge 0 multiplicity 1
 C        -0.058515        -0.018770        -0.068041
 C         1.398756         0.373846         0.005752
 O         2.312365         0.184475         1.196711
 C         3.205619         0.577261         0.139175
 C         2.472285        -0.336267        -0.923254
 C         2.410652         0.394031        -2.305769
 C         2.377323         1.912233        -1.856118
 C         2.235099         1.757936        -0.319785
 O         2.094056         2.851941         0.417894
 H        -0.805993         0.529108         0.434106
 H        -0.224889         0.155288        -1.169452
 H        -0.429557        -1.102356         0.088761
 H         4.290373         0.678899         0.313749
 H         2.644857        -1.390768        -0.780557
 H         3.287350         0.256307        -2.979313
 H         1.470768         0.069446        -2.809236
 H         3.265937         2.480739        -2.092509
 H         1.444154         2.383782        -2.361130
 H         1.951362         2.582614         1.334009
