19
Iteration:  4857
 C        -0.111050        -0.019507        -0.060661
 C         1.394898         0.416039        -0.044149
 O         2.318202         0.195620         1.222562
 C         3.207506         0.447471         0.072034
 C         2.439190        -0.319176        -0.912150
 C         2.534105         0.414101        -2.259282
 C         2.354841         1.908997        -1.871280
 C         2.232992         1.744981        -0.342830
 O         2.098154         2.909861         0.421482
 H        -0.664308         0.339501         0.780261
 H        -0.795402         0.180476        -0.940899
 H        -0.174153        -1.074870         0.134381
 H         4.239879         0.611846         0.043228
 H         2.343672        -1.430470        -0.842731
 H         3.533594         0.141904        -2.581263
 H         1.777320         0.092869        -2.958488
 H         3.122316         2.549754        -2.123308
 H         1.317335         2.472404        -2.190972
 H         1.902202         2.466080         1.266666
