19
Iteration:  3665
 C        -0.045170         0.219587         0.164883
 C         1.396187         0.317922        -0.022816
 O         2.265707         0.094453         1.160354
 C         3.254056         0.415468         0.094351
 C         2.496361        -0.279759        -0.973341
 C         2.716139         0.471255        -2.290862
 C         2.225091         1.943364        -1.865664
 C         2.197345         1.693349        -0.440045
 O         1.918013         2.798144         0.364488
 H        -0.489662         0.706042         1.097070
 H        -0.525439         0.689027        -0.676369
 H        -0.434171        -0.804119         0.263466
 H         4.310867         0.346585         0.382094
 H         2.659374        -1.382764        -1.072247
 H         3.822923         0.315726        -2.351318
 H         2.112527         0.056672        -3.141940
 H         3.042823         2.758694        -1.945388
 H         1.344770         2.229802        -2.362302
 H         2.216572         2.569439         1.275184
