19
Iteration:  4191
 C        -0.063884         0.237354        -0.015750
 C         1.478857         0.324186        -0.161398
 O         2.332943         0.139558         1.168148
 C         3.255222         0.621567         0.139490
 C         2.516987        -0.317389        -0.932042
 C         2.501307         0.378064        -2.304218
 C         2.235204         1.801475        -1.899324
 C         2.190619         1.694723        -0.311060
 O         2.037720         2.761687         0.520586
 H        -0.416783         1.138166         0.385205
 H        -0.666021         0.429074        -0.964854
 H        -0.521005        -0.775323         0.413659
 H         4.312864         0.826780         0.366584
 H         2.626901        -1.368663        -0.972801
 H         3.537519         0.365755        -2.645467
 H         1.738686         0.106326        -3.060278
 H         3.009105         2.511050        -2.162095
 H         1.250701         2.245199        -2.077842
 H         1.718999         2.360485         1.381648
