19
Iteration:  4914charge 0 multiplicity 1
 C        -0.084004         0.317822         0.176451
 C         1.416193         0.291838        -0.106635
 O         2.318435         0.047256         1.096096
 C         3.211693         0.557399         0.139727
 C         2.572948        -0.287113        -0.962373
 C         2.611835         0.388496        -2.270173
 C         2.388757         1.905926        -1.883975
 C         2.244455         1.657918        -0.375799
 O         1.831025         2.765451         0.404790
 H        -0.281583         0.927874         1.079937
 H        -0.627744         0.842477        -0.595168
 H        -0.573731        -0.619563         0.236677
 H         4.321599         0.747798         0.294126
 H         2.615290        -1.432234        -0.877326
 H         3.527777         0.186530        -2.876343
 H         1.816859         0.022245        -2.914097
 H         3.261254         2.490749        -2.171343
 H         1.393226         2.416860        -2.271433
 H         1.699254         2.561592         1.339135
