19
Iteration:  2445charge 0 multiplicity 1
 C        -0.033881         0.280816         0.062123
 C         1.472229         0.384067        -0.092771
 O         2.161478         0.044843         1.187867
 C         3.306616         0.487625         0.159974
 C         2.551176        -0.337806        -0.951441
 C         2.696212         0.435998        -2.319417
 C         2.102480         1.817857        -1.939764
 C         2.233091         1.654645        -0.347281
 O         2.054281         2.879184         0.468591
 H        -0.377485         1.196456         0.761887
 H        -0.675457         0.482831        -0.796129
 H        -0.238616        -0.605400         0.589038
 H         4.393359         0.430020         0.429182
 H         2.697526        -1.451813        -1.084212
 H         3.741402         0.337693        -2.692161
 H         2.007200        -0.017088        -3.152712
 H         2.622088         2.785858        -2.402619
 H         0.960359         1.801442        -2.279451
 H         1.374042         2.717157         1.139260
