19
Iteration:  1412
 C        -0.036995         0.264103         0.183312
 C         1.473089         0.263090        -0.045031
 O         2.218705         0.135796         1.175253
 C         3.213013         0.630091         0.030149
 C         2.526461        -0.366112        -0.914833
 C         2.593958         0.421206        -2.316287
 C         2.309346         1.871409        -1.822935
 C         2.143262         1.572169        -0.427854
 O         1.993076         2.797703         0.328483
 H        -0.179536         1.111631         0.947353
 H        -0.542219         0.490877        -0.857355
 H        -0.400743        -0.683392         0.573009
 H         4.254932         0.804740         0.424762
 H         2.718018        -1.469544        -0.759695
 H         3.612154         0.430479        -2.865076
 H         1.934420         0.150720        -3.130703
 H         3.082159         2.604431        -1.926420
 H         1.275999         2.233071        -2.120968
 H         2.072941         2.655090         1.279865
