19
Iteration:  2906
 C        -0.045256        -0.126714        -0.047758
 C         1.337408         0.347018         0.019206
 O         2.274578         0.212375         1.278159
 C         3.053229         0.531081         0.124902
 C         2.442793        -0.286262        -0.938406
 C         2.570188         0.450517        -2.297659
 C         2.233741         1.867495        -1.867420
 C         2.198745         1.680910        -0.332930
 O         2.264602         2.942385         0.326029
 H        -0.621590         0.490660         0.630790
 H        -0.341835         0.183083        -1.062842
 H        -0.187665        -1.247510        -0.012603
 H         4.126150         0.509471         0.392727
 H         2.700216        -1.301485        -0.810557
 H         3.611242         0.432674        -2.698323
 H         1.915674         0.189004        -3.186850
 H         2.993231         2.541905        -2.125478
 H         1.249858         2.280677        -2.152419
 H         2.325190         3.024289         1.312617
