19
Iteration:  2817
 C        -0.072411         0.326657         0.074723
 C         1.420356         0.382509        -0.085338
 O         2.430417         0.124397         1.226260
 C         3.282251         0.545447         0.125542
 C         2.527881        -0.398244        -1.011393
 C         2.573379         0.403011        -2.339170
 C         2.401233         1.909180        -1.835706
 C         2.197448         1.619675        -0.332850
 O         1.751763         2.717152         0.365243
 H        -0.385827         1.263464         0.694881
 H        -0.666615         0.440835        -0.863174
 H        -0.457305        -0.466526         0.658549
 H         4.394623         0.673079         0.414142
 H         2.440383        -1.497669        -0.878050
 H         3.383312        -0.022099        -3.034526
 H         1.585784         0.217004        -2.817631
 H         3.175281         2.573348        -1.876691
 H         1.528266         2.390943        -2.374339
 H         2.013134         2.639030         1.329416
