19
Iteration:   283charge 0 multiplicity 1
 C        -0.110575         0.225508         0.138945
 C         1.424787         0.366752        -0.031280
 O         2.314177         0.138631         1.161287
 C         3.286097         0.572474         0.092379
 C         2.460762        -0.334400        -0.946457
 C         2.601484         0.386942        -2.321957
 C         2.377205         1.890912        -1.873423
 C         2.268055         1.649404        -0.411197
 O         1.892213         2.758549         0.400185
 H        -0.589897         1.050753         0.812207
 H        -0.601384         0.413798        -0.798608
 H        -0.519851        -0.790002         0.458361
 H         4.310432         0.640002         0.476460
 H         2.351778        -1.417097        -0.896998
 H         3.661312         0.294679        -2.691233
 H         1.943423         0.035123        -3.118619
 H         3.018645         2.733686        -2.187174
 H         1.463056         2.258971        -2.257769
 H         1.855241         2.473580         1.322503
