19
Iteration:  4036charge 0 multiplicity 1
 C        -0.064582         0.375264        -0.013169
 C         1.449414         0.226236        -0.055549
 O         2.263690         0.133901         1.143975
 C         3.294690         0.623769         0.077167
 C         2.566115        -0.280161        -1.028354
 C         2.527127         0.362795        -2.319468
 C         2.240590         1.870450        -1.783154
 C         2.297229         1.608326        -0.284473
 O         1.947233         2.728006         0.486687
 H        -0.366230         1.077053         0.805430
 H        -0.331452         0.642871        -1.026564
 H        -0.642213        -0.693425         0.175398
 H         4.306553         0.693060         0.416271
 H         2.984027        -1.292592        -0.952367
 H         3.550860         0.235833        -2.771697
 H         1.814859         0.060157        -3.078710
 H         2.796517         2.727541        -2.153438
 H         1.112042         2.008194        -2.080265
 H         1.562861         2.448089         1.330368
