19
Iteration:  2422
 C        -0.072526         0.183489         0.039025
 C         1.402022         0.367884        -0.068872
 O         2.260279         0.095042         1.138346
 C         3.184106         0.565865         0.133728
 C         2.488353        -0.324542        -0.911248
 C         2.659284         0.434715        -2.301626
 C         2.150881         1.833372        -1.800079
 C         2.269013         1.667879        -0.340557
 O         2.085670         2.826747         0.377108
 H        -0.651514         1.027971         0.582865
 H        -0.379694         0.367854        -0.987046
 H        -0.412315        -0.777045         0.365887
 H         4.281497         0.615621         0.364562
 H         2.531536        -1.366126        -0.644557
 H         3.720136         0.507216        -2.692809
 H         2.053616         0.111063        -3.142050
 H         2.855115         2.561768        -2.299884
 H         1.104255         2.042235        -2.240268
 H         2.275996         2.557048         1.311245
