19
Iteration:  2546charge 0 multiplicity 1
 C        -0.075429        -0.013575        -0.017279
 C         1.405327         0.267541        -0.065393
 O         2.243177         0.159942         1.200695
 C         3.151359         0.568560         0.129233
 C         2.506537        -0.326601        -0.971095
 C         2.415587         0.440028        -2.210159
 C         2.442101         1.932776        -1.854693
 C         2.197651         1.713086        -0.318720
 O         2.159152         2.958068         0.366383
 H        -0.928601         0.316919         0.619362
 H        -0.536373         0.049590        -1.024521
 H        -0.132385        -1.065546         0.225850
 H         4.162404         0.627479         0.472948
 H         2.757269        -1.419540        -1.030962
 H         3.067565         0.128679        -2.961662
 H         1.351839         0.097436        -2.590758
 H         3.550368         2.335717        -2.004416
 H         1.699423         2.426265        -2.532411
 H         1.944992         2.785771         1.321876
