19
Iteration:  1588charge 0 multiplicity 1
 C        -0.064091         0.298440         0.125948
 C         1.451240         0.406076        -0.040097
 O         2.236582         0.129228         1.169791
 C         3.296063         0.529065         0.135155
 C         2.588945        -0.280267        -0.974565
 C         2.535042         0.371172        -2.394878
 C         2.331184         1.782153        -1.934939
 C         2.229602         1.673986        -0.305228
 O         1.874715         2.796844         0.439917
 H        -0.409333         0.904217         0.898074
 H        -0.635551         0.524680        -0.842069
 H        -0.175945        -0.734634         0.323945
 H         4.343657         0.476605         0.550795
 H         2.652415        -1.343931        -0.860617
 H         3.476676         0.056216        -2.915317
 H         1.770259        -0.118863        -2.925637
 H         3.075818         2.473466        -2.329017
 H         1.482230         2.208138        -2.489122
 H         2.104965         2.514512         1.366807
