19
Iteration:  1657charge 0 multiplicity 1
 C        -0.104546        -0.072979        -0.047162
 C         1.417665         0.347589        -0.109271
 O         2.191595         0.191626         1.117539
 C         3.191272         0.576716         0.191924
 C         2.463884        -0.331533        -0.884052
 C         2.408795         0.371715        -2.220082
 C         2.291153         1.874800        -1.870612
 C         2.331749         1.763679        -0.389521
 O         2.231822         2.950511         0.452874
 H        -0.701309         0.490881         0.727736
 H        -0.535616        -0.204427        -1.079421
 H         0.137680        -1.136110         0.364268
 H         4.181859         0.597400         0.429522
 H         2.632069        -1.468630        -0.838617
 H         3.312332         0.387757        -2.837502
 H         1.572880         0.136194        -2.968320
 H         2.939723         2.626517        -2.393232
 H         1.345747         2.401763        -2.116322
 H         2.230726         2.686025         1.400543
