19
Iteration:  1818
 C        -0.023682        -0.105867        -0.024782
 C         1.379721         0.394214        -0.074799
 O         2.198472         0.199922         1.141146
 C         3.224898         0.517529         0.132694
 C         2.394437        -0.267463        -0.927124
 C         2.435825         0.447967        -2.231299
 C         2.296774         1.914709        -1.863521
 C         2.305903         1.744073        -0.351639
 O         2.183251         2.843333         0.415148
 H        -0.651504         0.490025         0.566237
 H        -0.379443        -0.020683        -1.104709
 H        -0.188676        -1.144982         0.349328
 H         4.324864         0.516390         0.594244
 H         2.518148        -1.359944        -0.745986
 H         3.443310         0.400269        -2.748440
 H         1.715359         0.079697        -2.929501
 H         3.011790         2.701925        -2.005120
 H         1.378142         2.408989        -2.255164
 H         2.440235         2.642839         1.331252
