19
Iteration:  1618charge 0 multiplicity 1
 C         0.000517         0.111014        -0.079176
 C         1.416794         0.316015        -0.011767
 O         2.337398         0.161348         1.208798
 C         3.191912         0.590792         0.107745
 C         2.459711        -0.373968        -0.880410
 C         2.383785         0.447593        -2.242336
 C         2.315573         1.897624        -1.819659
 C         2.186362         1.677048        -0.344019
 O         2.093674         2.843456         0.336402
 H        -0.695161         0.751241         0.539042
 H        -0.302777         0.328477        -1.059731
 H        -0.178592        -0.920011         0.053206
 H         4.319502         0.793507         0.417550
 H         2.559651        -1.406475        -0.689313
 H         3.339042         0.213431        -2.734498
 H         1.660205         0.049302        -2.927666
 H         3.265379         2.373316        -2.069613
 H         1.513627         2.390509        -2.394840
 H         2.053719         2.501881         1.249854
