19
Iteration:  3235charge 0 multiplicity 1
 C        -0.035442        -0.056429        -0.096271
 C         1.383992         0.337645         0.017019
 O         2.205126         0.248592         1.207790
 C         3.210007         0.571674         0.081488
 C         2.465080        -0.359686        -0.877719
 C         2.483067         0.386974        -2.213871
 C         2.222076         1.912847        -1.878281
 C         2.309272         1.673202        -0.418274
 O         2.157992         2.950866         0.439678
 H        -0.729452         0.419823         0.531415
 H        -0.294291         0.107366        -1.154257
 H         0.012028        -1.179498         0.237745
 H         4.262319         0.560845         0.370875
 H         2.686121        -1.466967        -0.723872
 H         3.262100         0.346192        -2.972502
 H         1.720943         0.056173        -2.920952
 H         3.045400         2.585765        -2.228042
 H         1.171538         2.280086        -2.298909
 H         2.482770         2.657474         1.304845
