19
Iteration:  3335charge 0 multiplicity 1
 C        -0.150532         0.297149         0.254911
 C         1.344653         0.282367        -0.076131
 O         2.302518         0.156565         1.142847
 C         3.232836         0.582092         0.010441
 C         2.491903        -0.337747        -0.914636
 C         2.768548         0.427708        -2.322013
 C         2.316222         1.856010        -1.905784
 C         2.157072         1.682321        -0.388431
 O         1.921687         2.710792         0.389243
 H        -0.231667         1.144005         0.951225
 H        -0.582952         0.425650        -0.779409
 H        -0.523895        -0.507238         0.859645
 H         4.285709         0.536589         0.263829
 H         2.921548        -1.364096        -0.895313
 H         3.847394         0.376807        -2.590884
 H         2.114591         0.071816        -3.148820
 H         3.231547         2.529850        -2.030413
 H         1.390953         2.126871        -2.504470
 H         1.909745         2.441635         1.324910
