19
Iteration:  3615
 C        -0.048972        -0.103424         0.063348
 C         1.370594         0.359306         0.016225
 O         2.150792         0.143801         1.149962
 C         3.196211         0.595402         0.106953
 C         2.531669        -0.339407        -0.938547
 C         2.438872         0.499549        -2.293272
 C         2.439766         1.957669        -1.895237
 C         2.211142         1.724044        -0.370065
 O         2.152103         2.863817         0.386475
 H        -0.592586         0.500038         0.721219
 H        -0.606450         0.008623        -0.871088
 H        -0.191287        -1.191704         0.502069
 H         4.294596         0.609962         0.462602
 H         2.607335        -1.437216        -0.952768
 H         3.349859         0.341427        -2.848049
 H         1.594291         0.152297        -2.927818
 H         3.460151         2.373580        -1.992500
 H         1.581287         2.528860        -2.388585
 H         1.871954         2.822628         1.306257
