19
Iteration:   332charge 0 multiplicity 1
 C        -0.102248         0.278307         0.133787
 C         1.370669         0.313967        -0.030390
 O         2.339690         0.074644         1.185495
 C         3.147966         0.563607         0.166719
 C         2.563416        -0.318428        -0.992557
 C         2.664778         0.439175        -2.311888
 C         2.261280         1.897817        -1.847549
 C         2.194123         1.616864        -0.363593
 O         2.003827         2.780230         0.327239
 H        -0.482609         1.069558         0.730201
 H        -0.555933         0.438939        -0.934059
 H        -0.537076        -0.680510         0.391661
 H         4.223930         0.752637         0.406932
 H         2.892348        -1.401506        -0.979865
 H         3.600538         0.354797        -2.878143
 H         1.758824         0.027975        -2.854181
 H         2.924080         2.709343        -2.258679
 H         1.192880         2.038215        -2.311159
 H         2.175631         2.653835         1.298833
