19
Iteration:  1873charge 0 multiplicity 1
 C        -0.017444         0.129937         0.120586
 C         1.392504         0.382645        -0.055536
 O         2.258240         0.037006         1.186825
 C         3.221349         0.569688         0.032341
 C         2.386620        -0.310107        -0.974823
 C         2.500020         0.419378        -2.302141
 C         2.440723         1.937491        -1.862720
 C         2.287930         1.710162        -0.352420
 O         1.956844         2.845206         0.410230
 H        -0.654400         0.751248         0.671555
 H        -0.642027        -0.034229        -0.821309
 H        -0.097768        -0.975737         0.393397
 H         4.413407         0.675923         0.178697
 H         2.561581        -1.394628        -0.824710
 H         3.584211         0.313141        -2.672030
 H         1.924100        -0.016441        -3.089482
 H         3.343697         2.485044        -1.965617
 H         1.560702         2.561233        -2.181841
 H         1.906514         2.593164         1.362843
