19
Iteration:  4038
 C        -0.049793         0.377419        -0.009373
 C         1.456518         0.239549        -0.070560
 O         2.271746         0.125730         1.148555
 C         3.272936         0.632796         0.077859
 C         2.556650        -0.297191        -1.018613
 C         2.536497         0.377678        -2.317819
 C         2.224756         1.854270        -1.793918
 C         2.300049         1.617185        -0.275732
 O         1.945242         2.724170         0.487328
 H        -0.361767         1.003518         0.784832
 H        -0.332134         0.683276        -1.017635
 H        -0.626921        -0.650836         0.197158
 H         4.273184         0.727270         0.481809
 H         2.921635        -1.296305        -0.981796
 H         3.510645         0.247232        -2.783476
 H         1.826939         0.012355        -3.118795
 H         2.845681         2.773681        -2.149143
 H         1.165712         1.995973        -2.194314
 H         1.623133         2.422175         1.376711
