19
Iteration:   504
 C        -0.094863         0.329570         0.066513
 C         1.411717         0.377001        -0.068160
 O         2.239870         0.107184         1.187977
 C         3.307872         0.633650        -0.038719
 C         2.555590        -0.318079        -0.986061
 C         2.680147         0.284739        -2.301555
 C         2.217326         1.832703        -1.878286
 C         2.181267         1.686756        -0.386415
 O         1.993673         2.776370         0.563044
 H        -0.380376         1.112357         0.754753
 H        -0.687590         0.414346        -0.941083
 H        -0.496096        -0.612169         0.458938
 H         4.383545         0.808839         0.122216
 H         2.731177        -1.566061        -0.701468
 H         3.614748         0.201475        -2.724169
 H         1.924191        -0.220526        -3.109315
 H         2.823602         2.686869        -2.100279
 H         1.213298         1.986494        -2.210715
 H         1.916254         2.278948         1.417664
