19
Iteration:  2097charge 0 multiplicity 1
 C        -0.003030         0.332682         0.054591
 C         1.415773         0.321045        -0.023136
 O         2.214138         0.061945         1.094830
 C         3.299618         0.547733         0.142418
 C         2.624606        -0.358305        -0.968296
 C         2.584659         0.429505        -2.368574
 C         2.137790         1.827894        -1.845622
 C         2.222201         1.706700        -0.344569
 O         1.981854         2.774131         0.481638
 H        -0.391746         1.115781         0.761698
 H        -0.283719         0.539950        -0.980826
 H        -0.508781        -0.517792         0.407147
 H         4.294791         0.628914         0.555009
 H         2.780320        -1.585059        -0.936235
 H         3.500334         0.471396        -2.907606
 H         1.805911        -0.071715        -3.061402
 H         2.802149         2.685269        -2.249130
 H         1.154814         2.148633        -2.121871
 H         2.215907         2.656272         1.416650
