19
Iteration:  1598
 C        -0.118722         0.205780         0.019812
 C         1.448431         0.335485        -0.057840
 O         2.286221         0.168743         1.171756
 C         3.286710         0.519693         0.134286
 C         2.533783        -0.267047        -0.959065
 C         2.502514         0.282615        -2.312808
 C         2.353881         1.863906        -1.885038
 C         2.319748         1.699198        -0.330318
 O         1.900325         2.850185         0.442481
 H        -0.525362         0.779820         0.796139
 H        -0.737881         0.476471        -0.857066
 H        -0.410704        -0.743709         0.301573
 H         4.453717         0.483549         0.221181
 H         2.644839        -1.314092        -0.895766
 H         3.351402         0.151753        -3.020825
 H         1.618647        -0.026731        -2.788470
 H         3.152322         2.505605        -2.214932
 H         1.316384         2.106409        -2.201306
 H         2.123567         2.747518         1.393614
