19
Iteration:  3019charge 0 multiplicity 1
 C         0.002487         0.185354         0.125757
 C         1.393208         0.395185        -0.044634
 O         2.244708         0.094050         1.170121
 C         3.210082         0.567888         0.106512
 C         2.553766        -0.300177        -0.976191
 C         2.598902         0.392001        -2.307652
 C         2.356604         1.858388        -1.849203
 C         2.249646         1.662915        -0.358518
 O         1.878536         2.848851         0.360090
 H        -0.592338         0.915096         0.694597
 H        -0.606302         0.104601        -0.788787
 H        -0.186700        -0.810550         0.624295
 H         4.259204         0.691310         0.336550
 H         2.698366        -1.419624        -1.000779
 H         3.526815         0.122969        -2.833621
 H         1.662130         0.055792        -2.911006
 H         3.178911         2.570536        -2.146023
 H         1.429605         2.246829        -2.142789
 H         2.165074         2.443589         1.198305
