19
Iteration:  2234
 C        -0.094515         0.138924        -0.037128
 C         1.417591         0.425320         0.036461
 O         2.342649         0.057579         1.198095
 C         3.265506         0.601213         0.071367
 C         2.460556        -0.269547        -0.936395
 C         2.473399         0.335614        -2.402780
 C         2.364349         1.862174        -1.879146
 C         2.200077         1.693072        -0.262742
 O         1.978895         2.842237         0.446600
 H        -0.621154         0.851921         0.647104
 H        -0.407324         0.287262        -1.057933
 H        -0.320416        -0.862920         0.421492
 H         4.367617         0.681726         0.331705
 H         2.474873        -1.289763        -0.867738
 H         3.564732         0.288393        -2.825572
 H         1.830685        -0.045839        -3.153922
 H         3.305294         2.382446        -1.999747
 H         1.543259         2.556997        -2.377193
 H         1.958985         2.453763         1.363549
