19
Iteration:  4363charge 0 multiplicity 1
 C        -0.049618         0.206728         0.007165
 C         1.461022         0.298052         0.052406
 O         2.252967         0.114117         1.130870
 C         3.264729         0.592982         0.092376
 C         2.538617        -0.305729        -0.907237
 C         2.584195         0.417905        -2.300003
 C         2.235177         1.920917        -1.867615
 C         2.233654         1.623450        -0.344339
 O         1.986495         2.805578         0.394782
 H        -0.599899         1.105883         0.443384
 H        -0.441230         0.081080        -0.992734
 H        -0.503673        -0.719750         0.538762
 H         4.249300         0.476796         0.514877
 H         2.628459        -1.359607        -0.753652
 H         3.507319         0.041569        -2.894133
 H         1.788624         0.115771        -3.014414
 H         2.883598         2.697850        -2.217429
 H         1.210958         2.347586        -2.317916
 H         2.121438         2.588107         1.359248
