19
Iteration:   269charge 0 multiplicity 1
 C        -0.132472         0.174236         0.079500
 C         1.401389         0.295683         0.003305
 O         2.283507         0.207270         1.239075
 C         3.201531         0.544931         0.069668
 C         2.502590        -0.321124        -0.967588
 C         2.567616         0.434325        -2.323802
 C         2.345819         1.883934        -1.921750
 C         2.175121         1.690073        -0.366481
 O         1.993877         2.777342         0.405044
 H        -0.423109         0.904946         0.847340
 H        -0.473515         0.304162        -0.932833
 H        -0.313634        -0.845962         0.456557
 H         4.322165         0.485447         0.099024
 H         2.951982        -1.259297        -0.966605
 H         3.656590         0.222462        -2.781848
 H         1.854983         0.100315        -3.020651
 H         3.460643         2.156423        -1.960560
 H         1.530932         2.468420        -2.389805
 H         2.132765         2.430482         1.340291
