19
Iteration:   224
 C         0.005482        -0.066499        -0.029556
 C         1.363669         0.425666        -0.044819
 O         2.207001         0.161513         1.242140
 C         3.165312         0.477785         0.142454
 C         2.525733        -0.232331        -0.922546
 C         2.341747         0.382936        -2.293454
 C         2.407764         1.911999        -1.945993
 C         2.340966         1.781021        -0.306264
 O         2.095992         2.931130         0.394529
 H        -0.653284         0.439404         0.616102
 H        -0.402699        -0.009140        -1.109455
 H        -0.014654        -1.086122         0.286869
 H         4.220102         0.329831         0.453543
 H         2.600597        -1.309372        -0.866943
 H         3.274157         0.176437        -2.920385
 H         1.498678        -0.152770        -2.742184
 H         3.335554         2.372729        -2.337131
 H         1.368653         2.277485        -2.180946
 H         2.004753         2.470079         1.288332
