19
Iteration:  2386
 C        -0.058156         0.002849         0.013482
 C         1.386578         0.408674        -0.040661
 O         2.272449         0.191673         1.155938
 C         3.201160         0.599449         0.119746
 C         2.444686        -0.348859        -0.893005
 C         2.439973         0.431650        -2.303631
 C         2.439034         1.876444        -1.870225
 C         2.211060         1.694419        -0.380573
 O         2.055539         2.831090         0.431501
 H        -0.619814         0.635926         0.653964
 H        -0.305973         0.167176        -1.058107
 H        -0.331624        -1.097296         0.233699
 H         4.290095         0.545828         0.222238
 H         2.622526        -1.398033        -0.709430
 H         3.287498         0.152840        -3.025328
 H         1.537543         0.222914        -2.800262
 H         3.404504         2.321602        -1.832956
 H         1.773514         2.686511        -2.326112
 H         2.205637         2.570387         1.371607
