19
Iteration:   762
 C        -0.052037        -0.139671         0.089683
 C         1.367977         0.250420        -0.092066
 O         2.198563         0.276002         1.209550
 C         3.161876         0.538623         0.136889
 C         2.437886        -0.303791        -0.971945
 C         2.409465         0.511507        -2.349886
 C         2.506800         1.912345        -1.807879
 C         2.271480         1.650975        -0.357208
 O         2.079073         2.917802         0.362192
 H        -0.444473         0.536660         0.877686
 H        -0.637700         0.101503        -0.879224
 H        -0.267152        -1.155141         0.373058
 H         4.246728         0.502752         0.472639
 H         2.597695        -1.351618        -1.068711
 H         3.306824         0.276280        -2.989913
 H         1.593321         0.265328        -2.924700
 H         3.534404         2.336279        -1.894555
 H         1.905891         2.706067        -2.307078
 H         2.361555         2.784884         1.289997
