19
Iteration:   499charge 0 multiplicity 1
 C        -0.125891         0.357967         0.076719
 C         1.382854         0.365927        -0.062526
 O         2.251864         0.127756         1.153960
 C         3.309092         0.631430        -0.010479
 C         2.563780        -0.301661        -0.977368
 C         2.697712         0.310368        -2.299470
 C         2.226482         1.810845        -1.868622
 C         2.164937         1.661585        -0.340980
 O         1.998320         2.719019         0.516493
 H        -0.442809         1.137075         0.808730
 H        -0.626245         0.456544        -0.836567
 H        -0.441510        -0.602777         0.513816
 H         4.384536         0.871460         0.082226
 H         2.755665        -1.268407        -0.883243
 H         3.715923         0.227356        -2.848793
 H         1.950991        -0.141818        -2.852994
 H         2.875491         2.667234        -2.220880
 H         1.162603         1.970705        -2.196646
 H         1.921664         2.236402         1.369545
