19
Iteration:  2819charge 0 multiplicity 1
 C        -0.074742         0.334630         0.075870
 C         1.427744         0.372821        -0.086197
 O         2.433800         0.126846         1.227474
 C         3.282384         0.554848         0.115345
 C         2.524486        -0.385803        -1.007812
 C         2.573765         0.384483        -2.323347
 C         2.409636         1.909513        -1.839485
 C         2.180263         1.624062        -0.326821
 O         1.753321         2.713510         0.353458
 H        -0.440146         1.195468         0.691327
 H        -0.612120         0.467974        -0.885439
 H        -0.471341        -0.517971         0.706207
 H         4.356173         0.542202         0.396688
 H         2.475442        -1.435920        -0.870348
 H         3.373734         0.022220        -3.008282
 H         1.551396         0.288994        -2.845580
 H         3.186239         2.628464        -1.880220
 H         1.553330         2.439484        -2.289505
 H         2.038560         2.524137         1.265555
