19
Iteration:  4126
 C        -0.118010        -0.068292         0.159822
 C         1.348116         0.330748        -0.051711
 O         2.167505         0.053654         1.102627
 C         3.182470         0.565453         0.131650
 C         2.577824        -0.273907        -0.998386
 C         2.431606         0.444060        -2.354059
 C         2.481928         1.909200        -1.844284
 C         2.262337         1.789979        -0.341868
 O         2.158770         2.969977         0.454658
 H        -0.748627         0.541829         0.799066
 H        -0.463651        -0.061930        -0.936390
 H        -0.192231        -1.273050         0.348024
 H         4.215197         0.784044         0.474219
 H         2.687911        -1.339120        -0.918041
 H         3.258386         0.169905        -3.014958
 H         1.463491         0.066855        -2.820391
 H         3.370223         2.586392        -2.153670
 H         1.573354         2.297979        -2.345795
 H         1.512381         2.632552         1.108219
