19
Iteration:  4291charge 0 multiplicity 1
 C        -0.002690        -0.038264         0.059750
 C         1.440104         0.378498        -0.155337
 O         2.165456         0.226018         1.219982
 C         3.205609         0.586080         0.195476
 C         2.499464        -0.344561        -0.951641
 C         2.437187         0.427923        -2.389113
 C         2.413193         1.932956        -1.832467
 C         2.235146         1.693893        -0.352759
 O         2.080729         2.826460         0.423717
 H        -0.403167         0.608829         0.817169
 H        -0.816257         0.175894        -0.761797
 H        -0.212394        -1.111501         0.249855
 H         4.308715         0.637186         0.356245
 H         2.660105        -1.414036        -0.767783
 H         3.155004         0.212353        -3.146179
 H         1.522925         0.043136        -2.903235
 H         3.273853         2.590306        -2.143648
 H         1.635120         2.403135        -2.400182
 H         2.088082         2.525762         1.384556
