19
Iteration:  2342charge 0 multiplicity 1
 C        -0.068138         0.062250         0.080028
 C         1.433471         0.275263        -0.005564
 O         2.217539         0.140292         1.154366
 C         3.293900         0.517679         0.186162
 C         2.487247        -0.285902        -0.935691
 C         2.420414         0.472320        -2.402522
 C         2.493383         1.923279        -1.821358
 C         2.184843         1.688715        -0.387123
 O         2.023920         2.873885         0.360326
 H        -0.397497         0.734398         0.818472
 H        -0.539398         0.186527        -0.920107
 H        -0.174913        -1.021388         0.416408
 H         4.287923         0.477144         0.648557
 H         2.570255        -1.384478        -0.855952
 H         3.162349         0.120515        -3.185665
 H         1.458671         0.409563        -2.772053
 H         3.426787         2.428194        -1.904229
 H         1.673749         2.443996        -2.423917
 H         1.615242         2.681060         1.242715
