19
Iteration:   618
 C        -0.028420         0.046677         0.089384
 C         1.437156         0.308808        -0.029734
 O         2.226143         0.231669         1.223181
 C         3.214149         0.532768         0.093459
 C         2.394704        -0.329418        -0.954069
 C         2.569923         0.455297        -2.370356
 C         2.430946         1.970807        -1.875376
 C         2.165485         1.625257        -0.387713
 O         2.049548         2.808494         0.375970
 H        -0.317799         0.813892         0.905731
 H        -0.563347         0.266996        -0.796223
 H        -0.390103        -0.973005         0.501976
 H         4.273189         0.490175         0.381280
 H         2.375058        -1.368746        -0.873068
 H         3.544693         0.178770        -2.895252
 H         1.720682         0.292120        -2.900739
 H         3.245981         2.708728        -1.808845
 H         1.498135         2.404106        -2.260935
 H         1.882277         2.367223         1.237263
