19
Iteration:   638charge 0 multiplicity 1
 C        -0.126073         0.254741         0.116362
 C         1.424196         0.371565        -0.037247
 O         2.282439         0.097500         1.150202
 C         3.181113         0.545962         0.090500
 C         2.544621        -0.309300        -0.968042
 C         2.600082         0.422308        -2.300346
 C         2.301701         1.874440        -1.858909
 C         2.223691         1.675546        -0.396416
 O         2.010675         2.764971         0.419860
 H        -0.592865         0.951962         0.848866
 H        -0.616951         0.310311        -0.811438
 H        -0.296288        -0.810581         0.495430
 H         4.209416         0.756869         0.356517
 H         2.877916        -1.382230        -1.120321
 H         3.639587         0.446965        -2.575835
 H         1.941803        -0.071068        -3.013114
 H         3.160521         2.367849        -2.240137
 H         1.387457         2.314603        -2.232090
 H         1.694068         2.434259         1.288111
