19
Iteration:  3275
 C        -0.049354         0.034878        -0.034039
 C         1.433545         0.426252        -0.050306
 O         2.306906         0.094967         1.168053
 C         3.197194         0.648531         0.182603
 C         2.522521        -0.381781        -0.862102
 C         2.380768         0.381203        -2.265342
 C         2.366358         1.831041        -1.876832
 C         2.237139         1.763176        -0.342926
 O         2.061854         2.890147         0.355262
 H        -0.674611         0.505211         0.744009
 H        -0.478805         0.405421        -0.950270
 H        -0.035601        -1.071557        -0.124541
 H         4.246884         0.905418         0.500330
 H         2.773829        -1.402873        -0.687509
 H         3.110885         0.053603        -3.054187
 H         1.391364         0.141037        -2.718792
 H         3.256867         2.348983        -2.149166
 H         1.613647         2.431550        -2.322492
 H         1.728218         2.627854         1.247614
