19
Iteration:  1290charge 0 multiplicity 1
 C        -0.083800        -0.142681        -0.091056
 C         1.378461         0.418617         0.020302
 O         2.255461         0.222416         1.247347
 C         3.284258         0.569993         0.117188
 C         2.471816        -0.283222        -0.905991
 C         2.301231         0.353367        -2.344669
 C         2.414001         1.899090        -1.837082
 C         2.261512         1.718018        -0.320212
 O         2.168716         2.971718         0.394317
 H        -0.817948         0.417275         0.634630
 H        -0.478010        -0.082507        -1.084703
 H        -0.047575        -1.267541         0.233503
 H         4.412094         0.542000         0.224271
 H         2.504755        -1.383692        -0.866781
 H         3.060419         0.064289        -3.159614
 H         1.423743        -0.041396        -2.803419
 H         3.340695         2.222874        -2.221300
 H         1.587007         2.509991        -2.268641
 H         1.791060         2.672632         1.259917
