19
Iteration:  1949
 C        -0.043545         0.228247        -0.043987
 C         1.432354         0.395108         0.000521
 O         2.277181         0.124724         1.181620
 C         3.238251         0.482032         0.065942
 C         2.543969        -0.376290        -1.007909
 C         2.569946         0.364659        -2.311879
 C         2.214516         1.879646        -1.905412
 C         2.227473         1.694526        -0.340052
 O         1.989400         2.855381         0.544618
 H        -0.428960         0.885847         0.783936
 H        -0.611378         0.580024        -1.019332
 H        -0.461970        -0.823136         0.229534
 H         4.351092         0.432351         0.400052
 H         2.643794        -1.445193        -0.806403
 H         3.570348         0.535979        -2.867891
 H         1.906010        -0.117197        -3.006899
 H         2.959932         2.560255        -2.246243
 H         1.175678         2.225837        -2.135766
 H         2.320496         2.610903         1.434240
