19
Iteration:  2165
 C        -0.064573        -0.032780         0.075197
 C         1.418856         0.351989        -0.111870
 O         2.191675         0.133627         1.153725
 C         3.211019         0.570397         0.051376
 C         2.463018        -0.312601        -0.916272
 C         2.484962         0.407673        -2.333414
 C         2.432359         1.964603        -1.829092
 C         2.233446         1.707152        -0.397380
 O         2.073928         2.901134         0.472458
 H        -0.350907         0.579563         0.869005
 H        -0.757378         0.102891        -0.813977
 H        -0.102582        -1.004239         0.551304
 H         4.233880         0.639940         0.387441
 H         2.469748        -1.483801        -0.701414
 H         3.329596         0.132476        -2.999787
 H         1.570830         0.235899        -2.896417
 H         3.408182         2.480273        -2.073574
 H         1.599064         2.538530        -2.305526
 H         2.086346         2.493523         1.367356
