19
Iteration:  4265charge 0 multiplicity 1
 C        -0.093108         0.089118         0.119595
 C         1.427404         0.369771        -0.005101
 O         2.232871         0.069876         1.137278
 C         3.237484         0.607288         0.024487
 C         2.448980        -0.261591        -0.971659
 C         2.559172         0.388263        -2.277442
 C         2.403804         1.901534        -1.896845
 C         2.206986         1.735765        -0.324798
 O         2.004859         2.841429         0.438019
 H        -0.599365         0.682721         0.940356
 H        -0.761137         0.256019        -0.718018
 H        -0.143226        -1.062901         0.277638
 H         4.319148         0.625929         0.182116
 H         2.707011        -1.311713        -0.925194
 H         3.605492         0.122536        -2.693063
 H         1.910122        -0.098818        -3.005724
 H         3.287563         2.443176        -2.150657
 H         1.599866         2.372650        -2.642919
 H         1.865101         2.575104         1.382209
