19
Iteration:  1160charge 0 multiplicity 1
 C         0.030735         0.156554         0.019538
 C         1.424412         0.370802        -0.085181
 O         2.283700         0.075180         1.113354
 C         3.172103         0.599355         0.117499
 C         2.548821        -0.320434        -0.937252
 C         2.457741         0.338494        -2.223823
 C         2.275116         1.855724        -1.888876
 C         2.216997         1.713238        -0.371305
 O         2.018123         2.887336         0.473468
 H        -0.448699         0.973582         0.629672
 H        -0.259022         0.358611        -0.955335
 H        -0.302387        -0.845218         0.400499
 H         4.122576         0.783906         0.521588
 H         2.560652        -1.351271        -0.684988
 H         3.496243         0.061752        -2.744539
 H         1.700382        -0.102144        -2.911585
 H         3.080781         2.467221        -2.286435
 H         1.321373         2.209769        -2.429334
 H         2.273447         2.622848         1.372737
