19
Iteration:   158charge 0 multiplicity 1
 C         0.001947         0.258466         0.123859
 C         1.469524         0.378903        -0.091947
 O         2.188498         0.147537         1.084766
 C         3.248351         0.548667         0.162089
 C         2.584837        -0.313689        -0.955582
 C         2.604942         0.335490        -2.318430
 C         2.270376         1.821842        -1.947893
 C         2.109332         1.667642        -0.378197
 O         1.985802         2.816809         0.501375
 H        -0.316995         1.005676         0.817945
 H        -0.692104         0.463132        -0.789854
 H        -0.227287        -0.689533         0.571888
 H         4.271179         0.570587         0.588950
 H         2.548145        -1.409861        -0.892277
 H         3.678835         0.347344        -2.610779
 H         1.979905        -0.109735        -3.113197
 H         3.161956         2.402506        -2.214064
 H         1.313030         2.259116        -2.420644
 H         1.905967         2.506321         1.422443
