19
Iteration:  4308
 C        -0.038135        -0.024905        -0.018915
 C         1.402361         0.331829         0.011117
 O         2.164532         0.233614         1.180007
 C         3.212039         0.576744         0.055608
 C         2.548453        -0.280185        -0.921054
 C         2.404605         0.464681        -2.191220
 C         2.377451         1.910320        -1.839302
 C         2.259910         1.631724        -0.434456
 O         2.100225         2.830252         0.389365
 H        -0.559370         0.639284         0.744636
 H        -0.353105         0.202839        -0.991050
 H         0.085412        -1.136898         0.138284
 H         4.181309         0.625841         0.511155
 H         2.649498        -1.338616        -1.076922
 H         3.267797         0.154187        -2.898516
 H         1.482162         0.235203        -2.725102
 H         3.330818         2.332434        -2.084332
 H         1.506362         2.693218        -2.094034
 H         2.057112         2.396389         1.293633
