19
Iteration:  2407
 C        -0.124529         0.142242        -0.053129
 C         1.387786         0.280751         0.005396
 O         2.302716         0.182923         1.276484
 C         3.220805         0.566352         0.090944
 C         2.442766        -0.323671        -1.000440
 C         2.562155         0.406049        -2.317580
 C         2.342789         1.893785        -1.876614
 C         2.177869         1.659844        -0.314180
 O         2.073420         2.852149         0.413113
 H        -0.533468         0.719210         0.718340
 H        -0.611637         0.134508        -1.056352
 H        -0.469290        -0.889033         0.389470
 H         4.276515         0.708143         0.354814
 H         2.639186        -1.392532        -1.192654
 H         3.629379         0.168808        -2.657694
 H         1.921603        -0.003826        -3.087246
 H         2.974465         2.723121        -2.062593
 H         1.304606         2.199262        -2.206132
 H         2.620016         2.712807         1.227310
