19
Iteration:  4519
 C        -0.041493         0.074158        -0.035727
 C         1.382637         0.309722         0.016296
 O         2.286735         0.221144         1.215798
 C         3.247536         0.580995         0.118993
 C         2.467994        -0.297069        -0.898285
 C         2.537152         0.389710        -2.257174
 C         2.296867         1.948459        -1.905636
 C         2.213633         1.663216        -0.422764
 O         2.055888         2.774331         0.424853
 H        -0.586690         0.735546         0.606719
 H        -0.340642         0.392104        -1.106737
 H        -0.518317        -0.937762         0.098684
 H         4.342888         0.691269         0.372739
 H         2.480117        -1.404567        -0.854070
 H         3.479653         0.366330        -2.881464
 H         1.771532        -0.005561        -2.955312
 H         3.182449         2.462626        -2.102980
 H         1.310755         2.358075        -2.328603
 H         2.033334         2.528565         1.386363
