19
Iteration:  3478charge 0 multiplicity 1
 C        -0.159238         0.120446         0.181985
 C         1.347681         0.302584        -0.031218
 O         2.275651         0.111590         1.152890
 C         3.248178         0.603856         0.027763
 C         2.465513        -0.322678        -0.900091
 C         2.679564         0.441712        -2.326466
 C         2.419023         1.887422        -1.886661
 C         2.149317         1.653986        -0.413359
 O         1.992372         2.848666         0.376453
 H        -0.269426         0.744857         1.155698
 H        -0.784778         0.621757        -0.620318
 H        -0.464296        -0.834959         0.451308
 H         4.266463         0.801356         0.259768
 H         2.747270        -1.372469        -0.835350
 H         3.723256         0.222798        -2.608786
 H         1.943988         0.063292        -3.072028
 H         3.225666         2.663480        -2.066912
 H         1.492732         2.259844        -2.311395
 H         1.913630         2.359579         1.218227
