19
Iteration:  2765charge 0 multiplicity 1
 C        -0.094824         0.102167         0.025670
 C         1.340344         0.368247        -0.078492
 O         2.286761         0.188564         1.211142
 C         3.182973         0.552631         0.144543
 C         2.563105        -0.330791        -0.997939
 C         2.537048         0.462731        -2.290989
 C         2.244687         1.821975        -1.896714
 C         2.244576         1.672155        -0.347052
 O         2.131718         2.841082         0.436255
 H        -0.678356         0.867314         0.537825
 H        -0.585511        -0.116574        -0.932695
 H        -0.246343        -0.892464         0.508072
 H         4.238254         0.687775         0.329710
 H         2.667334        -1.381485        -0.883868
 H         3.555868         0.429647        -2.592000
 H         2.001589        -0.081237        -3.124442
 H         3.034853         2.481645        -2.305839
 H         1.261172         2.275877        -2.016740
 H         1.731870         2.612954         1.283593
