19
Iteration:  2017charge 0 multiplicity 1
 C        -0.130991        -0.068579         0.096335
 C         1.379863         0.355560        -0.097952
 O         2.206878         0.088677         1.091412
 C         3.178073         0.598577         0.154469
 C         2.493062        -0.284211        -0.941401
 C         2.416989         0.394145        -2.345394
 C         2.481223         1.978053        -1.823608
 C         2.290511         1.789836        -0.378956
 O         2.130794         2.875686         0.425283
 H        -0.481337         0.666706         0.865687
 H        -0.714927        -0.112612        -0.799084
 H         0.006789        -1.087342         0.567925
 H         4.167325         0.777022         0.704576
 H         2.468127        -1.351628        -0.959443
 H         3.184146         0.042256        -3.019844
 H         1.451398         0.079424        -2.789635
 H         3.405807         2.430418        -2.074354
 H         1.654857         2.583946        -2.211970
 H         2.038985         2.529896         1.349628
