19
Iteration:  3410charge 0 multiplicity 1
 C        -0.028054         0.009118        -0.180570
 C         1.415953         0.345060         0.006977
 O         2.308850         0.168097         1.294002
 C         3.175554         0.666408         0.124729
 C         2.506550        -0.281657        -0.891633
 C         2.344122         0.370354        -2.332365
 C         2.370010         1.801191        -1.832399
 C         2.139315         1.676408        -0.336067
 O         2.163311         2.909595         0.388317
 H        -0.584917         0.720098         0.412205
 H        -0.278661        -0.027282        -1.285739
 H        -0.213934        -1.035845         0.217083
 H         4.271527         0.731566         0.187921
 H         2.586330        -1.397101        -0.697906
 H         3.252990         0.116702        -2.960655
 H         1.335515         0.184015        -2.727405
 H         3.244378         2.389029        -1.962430
 H         1.559398         2.501500        -2.276127
 H         2.081565         2.679700         1.346580
