19
Iteration:   455
 C         0.018318         0.192573         0.091153
 C         1.430359         0.398267        -0.005592
 O         2.234707         0.115925         1.156855
 C         3.237872         0.479295         0.018598
 C         2.477606        -0.323961        -0.975269
 C         2.567847         0.423571        -2.278672
 C         2.348653         1.833426        -1.828536
 C         2.258479         1.671184        -0.306704
 O         1.924729         2.872381         0.352905
 H        -0.397854         0.889585         0.843589
 H        -0.468724         0.263784        -0.825025
 H        -0.245137        -0.824668         0.452668
 H         4.310737         0.376986         0.245463
 H         2.467347        -1.323347        -0.870389
 H         3.591279         0.186965        -2.802111
 H         1.793655         0.155336        -2.914773
 H         3.169867         2.582605        -2.055938
 H         1.338497         2.135558        -2.237015
 H         1.705212         2.796075         1.293588
