19
Iteration:  2549charge 0 multiplicity 1
 C        -0.103852        -0.015701        -0.032118
 C         1.402493         0.260356        -0.036031
 O         2.247879         0.155286         1.206630
 C         3.177958         0.602819         0.123433
 C         2.489840        -0.343867        -0.967222
 C         2.424741         0.450096        -2.231395
 C         2.426227         1.911172        -1.851092
 C         2.203564         1.700921        -0.314251
 O         2.180484         2.978050         0.379708
 H        -0.864197         0.351828         0.582787
 H        -0.558178         0.000230        -1.039588
 H        -0.198624        -1.157006         0.213041
 H         4.205855         0.654816         0.453364
 H         2.642171        -1.396370        -1.061278
 H         3.195579         0.205816        -3.008352
 H         1.425384         0.108616        -2.654465
 H         3.425824         2.271597        -2.069023
 H         1.740473         2.388087        -2.500918
 H         1.773042         2.802777         1.280796
