19
Iteration:  3186
 C        -0.078003         0.163559         0.214613
 C         1.406912         0.254870        -0.093418
 O         2.319509         0.152918         1.138881
 C         3.207378         0.532993         0.111280
 C         2.509243        -0.326796        -0.977759
 C         2.668801         0.409524        -2.268934
 C         2.290926         1.948551        -1.840823
 C         2.158354         1.673219        -0.397876
 O         1.954207         2.818087         0.341955
 H        -0.302055         1.273423         0.493511
 H        -0.650802         0.189748        -0.736118
 H        -0.540345        -0.467208         0.901395
 H         4.283592         0.504292         0.372514
 H         2.725389        -1.377636        -0.958213
 H         3.674121         0.092357        -2.624207
 H         2.066483         0.051488        -3.123275
 H         3.016738         2.707631        -2.136662
 H         1.394575         2.153143        -2.290711
 H         1.874694         2.605961         1.308364
