19
Iteration:  3404charge 0 multiplicity 1
 C        -0.039910         0.024147        -0.168325
 C         1.454006         0.288842        -0.027919
 O         2.296674         0.186706         1.344490
 C         3.206612         0.666236         0.098323
 C         2.475889        -0.326419        -0.952090
 C         2.407778         0.392617        -2.321149
 C         2.317848         1.853756        -1.837861
 C         2.114435         1.668844        -0.275156
 O         2.169115         2.902156         0.369820
 H        -0.676651         0.767231         0.398383
 H        -0.247428         0.016237        -1.228400
 H        -0.262988        -0.907605         0.296832
 H         4.285008         0.660018         0.270138
 H         2.572368        -1.327655        -0.603757
 H         3.147501         0.108173        -3.028135
 H         1.435322         0.180937        -2.807807
 H         3.359465         2.358113        -2.002630
 H         1.520204         2.282267        -2.371789
 H         2.065141         2.772069         1.333475
