19
Iteration:  4242
 C        -0.066626         0.236379         0.116750
 C         1.417409         0.287744        -0.048122
 O         2.375493         0.130371         1.171145
 C         3.157942         0.495436         0.094078
 C         2.446347        -0.356985        -0.997436
 C         2.649205         0.480002        -2.287725
 C         2.312657         1.892867        -1.810305
 C         2.189161         1.655535        -0.348409
 O         1.960670         2.805344         0.335376
 H        -0.547586         0.917877         0.892367
 H        -0.645514         0.399941        -0.750612
 H        -0.392447        -0.827346         0.322147
 H         4.182179         0.693313         0.381028
 H         2.522854        -1.468835        -1.033612
 H         3.726175         0.369218        -2.666624
 H         2.058385         0.115478        -3.133059
 H         3.041783         2.697661        -1.917288
 H         1.328689         2.405758        -2.229169
 H         1.962022         2.572545         1.270381
