19
Iteration:  4562charge 0 multiplicity 1
 C        -0.069640         0.267600         0.225259
 C         1.475156         0.367006        -0.080595
 O         2.234444         0.030895         1.090362
 C         3.228672         0.533483         0.087218
 C         2.544814        -0.302305        -0.931030
 C         2.672887         0.453414        -2.304290
 C         2.339616         1.870306        -1.931814
 C         2.149479         1.688325        -0.370609
 O         1.918093         2.796641         0.400111
 H        -0.465221         1.158783         0.696963
 H        -0.796667         0.194018        -0.691996
 H        -0.465244        -0.579005         0.903548
 H         4.261453         0.682542         0.473965
 H         2.753200        -1.373857        -0.960717
 H         3.765715         0.183167        -2.538668
 H         2.012338        -0.071322        -3.039434
 H         3.092705         2.549584        -2.113981
 H         1.298717         2.148347        -2.379004
 H         1.895338         2.473971         1.333849
