19
Iteration:  1837
 C        -0.067394        -0.071962         0.058971
 C         1.375877         0.310113        -0.095790
 O         2.136252         0.143920         1.263840
 C         3.123993         0.606009         0.126691
 C         2.511789        -0.305841        -0.992833
 C         2.491916         0.471961        -2.360388
 C         2.351179         1.948529        -1.843801
 C         2.185987         1.648501        -0.348915
 O         2.259050         2.906268         0.389614
 H        -0.608397         0.603054         0.793009
 H        -0.459346        -0.115774        -1.024475
 H         0.045157        -1.014913         0.571668
 H         4.148491         0.765122         0.408246
 H         2.711774        -1.394288        -1.007828
 H         3.420261         0.471568        -3.029671
 H         1.640124         0.049816        -2.911053
 H         3.266966         2.584701        -2.069928
 H         1.477928         2.507872        -2.169766
 H         2.236677         2.598377         1.327129
