19
Iteration:   510
 C        -0.050862         0.266631         0.027488
 C         1.483024         0.382276        -0.069949
 O         2.239034         0.095244         1.206916
 C         3.246775         0.621246        -0.041024
 C         2.542077        -0.401897        -0.927387
 C         2.586313         0.278212        -2.349122
 C         2.201698         1.850859        -1.901978
 C         2.222504         1.706407        -0.409750
 O         1.987134         2.851471         0.606439
 H        -0.349541         1.146201         0.660919
 H        -0.525278         0.448315        -0.888609
 H        -0.460640        -0.675803         0.442726
 H         4.303287         0.626222         0.284487
 H         2.594327        -1.339693        -0.684102
 H         3.745099         0.219108        -2.621034
 H         2.134187        -0.059904        -3.206344
 H         2.894801         2.722228        -2.148076
 H         1.201451         2.103667        -2.364993
 H         1.950154         2.358653         1.443953
