19
Iteration:  1723charge 0 multiplicity 1
 C         0.007558         0.297334         0.150365
 C         1.396423         0.369445        -0.042843
 O         2.307109         0.026423         1.141869
 C         3.250528         0.595703         0.037939
 C         2.449557        -0.353398        -0.919981
 C         2.621854         0.432228        -2.288672
 C         2.399217         1.895795        -1.873553
 C         2.204217         1.651136        -0.405635
 O         1.841431         2.796657         0.404427
 H        -0.324198         0.972674         0.959074
 H        -0.564270         0.494564        -0.726835
 H        -0.348703        -0.680228         0.618479
 H         4.288329         0.469458         0.152163
 H         2.696192        -1.449714        -0.879673
 H         3.589037         0.118109        -2.615102
 H         1.831596         0.062201        -3.036515
 H         3.215588         2.585748        -2.202164
 H         1.476396         2.350436        -2.332941
 H         1.694403         2.389607         1.297123
