19
Iteration:  2331
 C        -0.080059         0.081935         0.083799
 C         1.420526         0.362051        -0.040797
 O         2.273018         0.091809         1.202015
 C         3.187047         0.563413         0.086549
 C         2.492595        -0.315967        -1.010921
 C         2.484597         0.446214        -2.256549
 C         2.463198         1.936401        -1.803083
 C         2.221753         1.659520        -0.319990
 O         1.990944         2.833733         0.302986
 H        -0.537464         0.751051         0.772740
 H        -0.539349         0.273900        -0.914920
 H        -0.421777        -0.937980         0.423829
 H         4.257833         0.715071         0.263395
 H         2.535258        -1.415056        -1.014702
 H         3.378090         0.167883        -2.889823
 H         1.659602         0.172540        -2.835981
 H         3.354733         2.494781        -2.004389
 H         1.621770         2.624650        -2.141647
 H         2.078177         2.682758         1.260762
