19
Iteration:  4620charge 0 multiplicity 1
 C         0.008910         0.123488         0.051645
 C         1.421970         0.411295        -0.114159
 O         2.239407         0.119444         1.198772
 C         3.201984         0.543016         0.148089
 C         2.481820        -0.321437        -0.919066
 C         2.496897         0.389930        -2.307417
 C         2.371019         1.906748        -1.917448
 C         2.265588         1.726641        -0.403894
 O         1.982663         2.799479         0.450471
 H        -0.506984         0.995059         0.563691
 H        -0.445193         0.027399        -0.980633
 H        -0.158881        -0.765408         0.580788
 H         4.261957         0.601751         0.456877
 H         2.608285        -1.441332        -0.788782
 H         3.349267         0.141982        -2.909759
 H         1.615254        -0.045627        -2.784944
 H         3.238899         2.562593        -2.232150
 H         1.564352         2.491506        -2.258212
 H         1.827422         2.517234         1.380976
