19
Iteration:  4504charge 0 multiplicity 1
 C        -0.133715         0.052418        -0.125293
 C         1.440135         0.383852         0.010489
 O         2.280078         0.201900         1.197813
 C         3.212770         0.614631         0.004763
 C         2.553908        -0.361617        -0.902735
 C         2.430912         0.350399        -2.255456
 C         2.310119         1.850165        -1.779741
 C         2.197674         1.732143        -0.329106
 O         2.090240         2.867273         0.434805
 H        -0.839287         0.607469         0.614796
 H        -0.314033         0.315351        -1.140802
 H        -0.071168        -1.103420        -0.072617
 H         4.268673         0.643276         0.248984
 H         2.868597        -1.361160        -0.700754
 H         3.435886         0.025173        -2.718818
 H         1.617935        -0.020838        -2.918126
 H         3.144405         2.553229        -2.076326
 H         1.530714         2.491635        -2.251942
 H         2.176247         2.428510         1.292441
