19
Iteration:  3700charge 0 multiplicity 1
 C        -0.051361         0.372018         0.033512
 C         1.482824         0.385016        -0.015158
 O         2.278092         0.085558         1.119004
 C         3.256762         0.630167         0.100966
 C         2.547810        -0.309164        -1.010789
 C         2.583485         0.342870        -2.347694
 C         2.218763         1.811826        -1.833947
 C         2.301976         1.646505        -0.316154
 O         1.888106         2.727100         0.495403
 H        -0.380206         1.007993         0.828792
 H        -0.382485         0.860987        -0.867023
 H        -0.563947        -0.678094         0.037329
 H         4.310929         0.571546         0.414314
 H         2.986909        -1.317642        -0.967008
 H         3.603624         0.223619        -2.678648
 H         2.002927        -0.145831        -3.196373
 H         2.759778         2.817641        -2.019057
 H         1.238569         2.073651        -2.099906
 H         1.568005         2.171725         1.258700
