19
Iteration:  4718charge 0 multiplicity 1
 C        -0.026484         0.185609         0.150034
 C         1.410521         0.325856        -0.136178
 O         2.217996         0.044179         1.135994
 C         3.148920         0.577347         0.210702
 C         2.557577        -0.273155        -0.950739
 C         2.622907         0.431286        -2.262006
 C         2.273533         1.903195        -1.902101
 C         2.194552         1.664054        -0.423368
 O         2.040320         2.792635         0.372676
 H        -0.228556         0.968362         0.948887
 H        -0.640818         0.600763        -0.725137
 H        -0.443495        -0.715593         0.502729
 H         4.195125         0.858607         0.455979
 H         2.560208        -1.400668        -0.869928
 H         3.627032         0.308329        -2.611737
 H         1.932518        -0.019772        -2.969156
 H         3.161881         2.504066        -2.153785
 H         1.465697         2.306952        -2.430949
 H         1.943777         2.566216         1.341675
