19
Iteration:  2243
 C        -0.061902         0.199389         0.014774
 C         1.407221         0.372877         0.057373
 O         2.280502         0.100211         1.211725
 C         3.217843         0.596652         0.070504
 C         2.533601        -0.307243        -0.960775
 C         2.532417         0.405884        -2.368980
 C         2.300520         1.850301        -1.848007
 C         2.217779         1.696166        -0.379719
 O         1.997724         2.779095         0.462286
 H        -0.496786         0.951706         0.570112
 H        -0.334195         0.311577        -1.053285
 H        -0.410165        -0.812258         0.322064
 H         4.247640         0.322732         0.325945
 H         2.764242        -1.378825        -0.853316
 H         3.560746         0.420493        -2.878701
 H         1.840718         0.160521        -3.131179
 H         3.062136         2.539460        -2.225108
 H         1.339916         2.138633        -2.435058
 H         2.088808         2.650724         1.428175
