19
Iteration:  2726
 C        -0.047630        -0.078160        -0.030175
 C         1.381059         0.473006        -0.057572
 O         2.231191         0.150092         1.196471
 C         3.112499         0.591524         0.130713
 C         2.467893        -0.290954        -0.919130
 C         2.457452         0.409068        -2.219835
 C         2.288524         1.891374        -1.879817
 C         2.217198         1.734574        -0.349696
 O         2.208640         2.853616         0.389075
 H        -0.713973         0.363475         0.684313
 H        -0.477695         0.049063        -1.029338
 H         0.149794        -1.151666         0.270295
 H         4.210739         0.619681         0.412557
 H         2.662340        -1.378006        -0.971273
 H         3.530150         0.421193        -2.682444
 H         1.742677         0.048012        -2.948817
 H         3.250238         2.416157        -2.214510
 H         1.474079         2.359048        -2.421894
 H         2.492575         2.579237         1.310696
