19
Iteration:  1921charge 0 multiplicity 1
 C        -0.075504         0.367673         0.026702
 C         1.453339         0.319496        -0.037583
 O         2.280602         0.067217         1.147584
 C         3.211085         0.666594         0.088645
 C         2.575244        -0.304938        -0.982248
 C         2.558203         0.408194        -2.286612
 C         2.287671         1.842700        -1.879489
 C         2.234983         1.618640        -0.378947
 O         1.967344         2.670883         0.472298
 H        -0.075021         1.142640         0.845659
 H        -0.564475         0.746157        -0.792462
 H        -0.484007        -0.553374         0.336477
 H         4.210198         0.817567         0.411536
 H         2.756626        -1.326226        -0.721808
 H         3.391955         0.492809        -2.881637
 H         1.752176        -0.085228        -2.901879
 H         3.039140         2.584319        -2.255630
 H         1.285165         2.203190        -2.027715
 H         1.669598         2.281068         1.329835
