19
Iteration:   357
 C        -0.055144         0.080106         0.000723
 C         1.406352         0.376318        -0.014646
 O         2.279313         0.189591         1.161913
 C         3.267933         0.547899         0.051595
 C         2.435282        -0.352515        -0.921666
 C         2.516909         0.340028        -2.318341
 C         2.279712         1.921847        -1.841360
 C         2.195269         1.670000        -0.350151
 O         2.064820         2.866791         0.461368
 H        -0.507401         0.827475         0.679926
 H        -0.522004         0.239861        -0.921238
 H        -0.377338        -0.949833         0.273660
 H         4.338893         0.802116         0.238968
 H         2.534008        -1.372018        -0.830135
 H         3.681051         0.281811        -2.541434
 H         1.919447        -0.075089        -3.055729
 H         3.262920         2.437193        -2.264452
 H         1.373615         2.415575        -2.364819
 H         2.119190         2.631664         1.410109
