19
Iteration:  2666
 C        -0.008550         0.181694         0.088101
 C         1.415206         0.387127        -0.058243
 O         2.300383         0.105975         1.189662
 C         3.271629         0.569200         0.143159
 C         2.458998        -0.310005        -0.987046
 C         2.458473         0.400059        -2.354830
 C         2.501635         1.852650        -1.852269
 C         2.249555         1.661065        -0.301599
 O         1.831118         2.770884         0.373911
 H        -0.355461         0.894280         0.932485
 H        -0.470555         0.567166        -0.871626
 H        -0.409439        -0.808319         0.260010
 H         4.322404         0.762552         0.331016
 H         2.454100        -1.413802        -0.780671
 H         3.323219         0.257926        -2.954617
 H         1.616976         0.230655        -3.102401
 H         3.469832         2.493220        -2.134156
 H         1.593455         2.416873        -2.267120
 H         2.070673         2.803823         1.312238
