19
Iteration:  1828
 C        -0.010625        -0.079802        -0.015946
 C         1.400868         0.332727        -0.005891
 O         2.134425         0.181581         1.162397
 C         3.158043         0.585168         0.160486
 C         2.491828        -0.273559        -0.918474
 C         2.457720         0.473556        -2.337988
 C         2.288120         1.973711        -1.793314
 C         2.218918         1.708920        -0.363147
 O         2.237950         2.840288         0.366725
 H        -0.550544         0.576207         0.643034
 H        -0.681492        -0.210325        -0.936186
 H         0.024384        -1.103527         0.428695
 H         4.290780         0.497777         0.451338
 H         2.570097        -1.390352        -0.983862
 H         3.463087         0.081401        -2.736879
 H         1.738554         0.339169        -3.084684
 H         3.190580         2.319600        -2.209367
 H         1.390192         2.489031        -2.167661
 H         2.432254         2.554639         1.290215
