19
Iteration:   287charge 0 multiplicity 1
 C        -0.081257         0.251332         0.155877
 C         1.448245         0.403583        -0.066201
 O         2.324777         0.125501         1.121606
 C         3.224873         0.535247         0.105325
 C         2.471011        -0.323163        -0.937723
 C         2.625488         0.371736        -2.303903
 C         2.380023         1.892065        -1.873451
 C         2.273670         1.641528        -0.400779
 O         1.877884         2.761564         0.404639
 H        -0.403948         1.025229         0.822011
 H        -0.559650         0.424822        -0.897008
 H        -0.382841        -0.727775         0.465303
 H         4.242129         0.763831         0.448606
 H         2.298880        -1.486634        -0.898698
 H         3.589328         0.193111        -2.628658
 H         1.868002         0.059399        -3.132621
 H         2.958479         2.745170        -2.122035
 H         1.238820         2.094080        -2.128768
 H         1.694768         2.587236         1.367248
