19
Iteration:  4847charge 0 multiplicity 1
 C        -0.096443        -0.057867        -0.053951
 C         1.384394         0.454217        -0.020030
 O         2.281351         0.218812         1.219992
 C         3.224533         0.480999         0.032261
 C         2.417032        -0.335551        -0.947061
 C         2.533912         0.381352        -2.291801
 C         2.307298         1.895215        -1.825363
 C         2.199883         1.716042        -0.305193
 O         2.141568         2.925314         0.448809
 H        -0.682610         0.465054         0.653694
 H        -0.296430         0.147396        -1.104594
 H         0.022288        -1.067049         0.035831
 H         4.278208         0.458573         0.288664
 H         2.351164        -1.467428        -0.935127
 H         3.496605         0.317523        -2.819143
 H         1.813269        -0.097959        -2.929312
 H         3.151342         2.410071        -2.097126
 H         1.406674         2.430691        -2.383954
 H         1.933378         2.836263         1.399444
