19
Iteration:  4777charge 0 multiplicity 1
 C        -0.032765         0.229491         0.012930
 C         1.501435         0.394158        -0.038963
 O         2.286843         0.078982         1.241868
 C         3.209618         0.608667         0.109943
 C         2.400443        -0.330274        -0.969422
 C         2.545537         0.404886        -2.317932
 C         2.317627         1.880698        -1.879615
 C         2.266011         1.688065        -0.315023
 O         1.932327         2.754184         0.399145
 H        -0.442424         1.170019         0.474713
 H        -0.359455        -0.125409        -0.978313
 H        -0.142150        -0.745712         0.713383
 H         4.322578         0.659843         0.092034
 H         2.578322        -1.368669        -0.790048
 H         3.520050         0.070413        -2.774068
 H         1.808813         0.230068        -3.165854
 H         3.323179         2.525892        -1.987429
 H         1.549018         2.501706        -2.451163
 H         1.722467         2.384206         1.260620
