19
Iteration:  3926
 C        -0.088310        -0.066552         0.045964
 C         1.370593         0.420629        -0.101831
 O         2.258993         0.118389         1.129013
 C         3.221068         0.479497         0.090617
 C         2.501784        -0.284825        -1.001994
 C         2.510975         0.412696        -2.297025
 C         2.418029         1.916978        -1.829822
 C         2.242998         1.777017        -0.363379
 O         2.077247         2.922133         0.532865
 H        -0.678043         0.492176         0.796889
 H        -0.552124         0.158697        -0.885133
 H        -0.115720        -1.105938         0.500554
 H         4.223091         0.290521         0.414408
 H         2.262243        -1.365967        -0.933590
 H         3.391639         0.396215        -2.980379
 H         1.733424         0.141718        -2.976329
 H         3.182086         2.640363        -2.021668
 H         1.500650         2.406679        -2.332705
 H         1.441534         2.580959         1.188284
