19
Iteration:  4171
 C        -0.068373         0.152806        -0.031906
 C         1.372477         0.381687         0.119713
 O         2.309884         0.193433         1.210372
 C         3.211821         0.516033         0.027231
 C         2.527257        -0.351386        -1.005869
 C         2.545587         0.371787        -2.310821
 C         2.298028         1.969155        -1.862734
 C         2.222145         1.673033        -0.330973
 O         2.008093         2.774530         0.457940
 H        -0.819406         0.929787         0.320467
 H        -0.281580         0.058070        -1.165703
 H        -0.323456        -0.936187         0.277476
 H         4.318575         0.465978         0.200911
 H         2.847792        -1.387894        -0.934592
 H         3.332772         0.237611        -3.018494
 H         1.553083         0.196568        -2.832738
 H         3.215315         2.676770        -2.066214
 H         1.399126         2.445004        -2.199914
 H         2.249048         2.414242         1.346891
