19
Iteration:  4129charge 0 multiplicity 1
 C        -0.120292        -0.086351         0.130615
 C         1.367525         0.345875        -0.074181
 O         2.176797         0.056534         1.124306
 C         3.168234         0.595534         0.128036
 C         2.547244        -0.278219        -0.999684
 C         2.424219         0.419611        -2.371640
 C         2.470317         1.912346        -1.822791
 C         2.297800         1.788651        -0.338817
 O         2.143790         2.962915         0.456136
 H        -0.725695         0.559662         0.837522
 H        -0.464145        -0.086245        -0.934175
 H        -0.187561        -1.118053         0.383234
 H         4.255557         0.691759         0.467018
 H         2.799249        -1.378095        -0.944420
 H         3.220507         0.067588        -3.003913
 H         1.485249         0.047207        -2.865385
 H         3.373893         2.598017        -2.161168
 H         1.598080         2.377314        -2.239428
 H         1.545322         2.710209         1.224747
