19
Iteration:   674
 C         0.049319         0.374223        -0.005342
 C         1.468545         0.352624         0.004212
 O         2.261931         0.031025         1.218222
 C         3.196397         0.551824         0.132232
 C         2.533051        -0.336228        -1.034585
 C         2.577881         0.419722        -2.287625
 C         2.175412         1.818905        -1.889807
 C         2.264687         1.650000        -0.352496
 O         1.890718         2.762400         0.440043
 H        -0.326262         1.258212         0.611203
 H        -0.379400         0.481004        -1.030771
 H        -0.286311        -0.577542         0.448952
 H         4.263461         0.601930         0.479279
 H         2.719209        -1.327385        -0.970989
 H         3.649011         0.455120        -2.679430
 H         2.104853        -0.016497        -3.075493
 H         2.765508         2.684102        -2.281164
 H         1.128504         2.146607        -2.042190
 H         2.613932         2.759338         1.081621
