19
Iteration:  4424
 C        -0.077899         0.152339         0.142586
 C         1.376269         0.350470         0.014879
 O         2.278145         0.065447         1.205680
 C         3.181655         0.642597         0.052507
 C         2.458892        -0.324247        -0.974056
 C         2.652229         0.454584        -2.327553
 C         2.391522         1.880713        -1.989379
 C         2.187855         1.718267        -0.375490
 O         1.936489         2.789660         0.441635
 H        -0.469229         0.876078         0.874087
 H        -0.478592         0.328671        -0.897593
 H        -0.245957        -0.840318         0.491183
 H         4.284490         0.663381         0.224048
 H         2.708957        -1.450906        -0.820316
 H         3.639250         0.221171        -2.635234
 H         1.981542        -0.111900        -3.004557
 H         3.421011         2.389977        -2.205192
 H         1.549933         2.342095        -2.404773
 H         2.006471         2.547333         1.368370
