19
Iteration:  1797charge 0 multiplicity 1
 C        -0.068903         0.068659        -0.119103
 C         1.380219         0.422447         0.008111
 O         2.342678         0.162744         1.244956
 C         3.195395         0.524411         0.068665
 C         2.460977        -0.315169        -0.973129
 C         2.501119         0.349535        -2.335097
 C         2.277567         1.848572        -1.848873
 C         2.224776         1.770814        -0.313561
 O         2.115219         2.876520         0.506325
 H        -0.726963         0.466927         0.566886
 H        -0.548518         0.080581        -1.118243
 H        -0.196239        -1.021900         0.237500
 H         4.430391         0.594797         0.244147
 H         2.552872        -1.451633        -0.793587
 H         3.477949         0.090917        -2.848315
 H         1.695981         0.190969        -3.074923
 H         3.020605         2.611212        -2.295122
 H         1.345481         2.356795        -2.298540
 H         1.860644         2.571946         1.392955
