19
Iteration:  3969charge 0 multiplicity 1
 C        -0.174344        -0.082943         0.070726
 C         1.354080         0.315795        -0.093361
 O         2.250406         0.143341         1.133269
 C         3.173802         0.506637         0.129359
 C         2.519072        -0.300099        -1.003885
 C         2.525396         0.514644        -2.274234
 C         2.472278         1.980731        -1.847535
 C         2.131805         1.721367        -0.335599
 O         2.106653         2.903588         0.449553
 H        -0.875804         0.538343         0.711034
 H        -0.635075        -0.343560        -0.890809
 H        -0.128316        -1.009920         0.738726
 H         4.227244         0.615317         0.373859
 H         2.823716        -1.348758        -1.281676
 H         3.344233         0.094823        -2.925603
 H         1.660317         0.218856        -2.815864
 H         3.392777         2.455438        -1.975310
 H         1.696750         2.640826        -2.386757
 H         2.638326         2.664116         1.250955
