19
Iteration:  4531
 C        -0.065908         0.153413         0.018932
 C         1.453584         0.332923        -0.116040
 O         2.287553         0.215704         1.245584
 C         3.178680         0.520281         0.164370
 C         2.489273        -0.310159        -0.942916
 C         2.556039         0.459007        -2.338435
 C         2.308372         1.835682        -1.900114
 C         2.225755         1.672370        -0.336619
 O         2.007772         2.794203         0.420499
 H        -0.370296         0.833843         0.766980
 H        -0.626074         0.309347        -0.982203
 H        -0.127189        -0.851937         0.411167
 H         4.258320         0.746628         0.397937
 H         2.685340        -1.427636        -0.980297
 H         3.557823         0.127159        -2.609603
 H         1.793053         0.121675        -3.048834
 H         2.934018         2.639769        -2.231640
 H         1.351477         2.228888        -2.360215
 H         1.955203         2.297404         1.261089
