19
Iteration:  4965charge 0 multiplicity 1
 C        -0.151837         0.107838        -0.029590
 C         1.426156         0.353394        -0.063981
 O         2.263283         0.120785         1.149793
 C         3.291159         0.588149         0.120133
 C         2.529099        -0.321962        -0.924240
 C         2.512348         0.416131        -2.250332
 C         2.271592         1.914869        -1.845415
 C         2.257451         1.733800        -0.391638
 O         2.072050         2.798390         0.454598
 H        -0.621029         0.920829         0.495011
 H        -0.675849         0.064712        -1.078268
 H        -0.442297        -0.890800         0.343412
 H         4.270664         0.526126         0.467654
 H         2.731539        -1.385993        -0.797597
 H         3.486291         0.263753        -2.697899
 H         1.730382         0.043210        -2.955053
 H         3.018445         2.554089        -2.241132
 H         1.284480         2.281028        -2.116226
 H         2.111106         2.554788         1.400154
