19
Iteration:   360charge 0 multiplicity 1
 C        -0.059889         0.054297         0.015310
 C         1.436740         0.383224         0.016373
 O         2.268016         0.201525         1.147282
 C         3.245524         0.538972         0.056076
 C         2.413200        -0.345401        -0.926332
 C         2.522789         0.329903        -2.307144
 C         2.292988         1.953182        -1.873013
 C         2.227376         1.690923        -0.376213
 O         2.066883         2.863924         0.482694
 H        -0.613778         0.787910         0.682518
 H        -0.385208         0.230041        -1.018480
 H        -0.338060        -0.988004         0.235217
 H         4.283910         0.738167         0.308725
 H         2.565497        -1.471288        -0.869371
 H         3.578787         0.255098        -2.630499
 H         1.838232        -0.134652        -3.044753
 H         3.177094         2.415151        -2.261430
 H         1.442557         2.322886        -2.330655
 H         2.033673         2.684296         1.460370
