19
Iteration:  2015
 C        -0.142891        -0.077434         0.104236
 C         1.390762         0.363565        -0.078269
 O         2.191749         0.079335         1.079784
 C         3.184252         0.609972         0.131423
 C         2.489957        -0.286646        -0.928071
 C         2.417643         0.387929        -2.347585
 C         2.490448         1.978521        -1.821097
 C         2.281218         1.794595        -0.361981
 O         2.146420         2.886347         0.426871
 H        -0.451515         0.672146         0.822163
 H        -0.783821        -0.131241        -0.850397
 H        -0.009831        -1.118909         0.541374
 H         4.157423         0.752426         0.700471
 H         2.559246        -1.315063        -1.033593
 H         3.224121         0.012522        -3.082628
 H         1.475486         0.022139        -2.704272
 H         3.380071         2.472893        -2.105422
 H         1.614708         2.561184        -2.227100
 H         1.975710         2.524196         1.313252
