19
Iteration:  2400charge 0 multiplicity 1
 C        -0.102780         0.090411        -0.039820
 C         1.380549         0.276977         0.014467
 O         2.319152         0.214806         1.281364
 C         3.155481         0.504089         0.054420
 C         2.495365        -0.302924        -0.993475
 C         2.494756         0.379553        -2.308910
 C         2.386879         1.933926        -1.843811
 C         2.179311         1.699708        -0.326056
 O         2.056611         2.852514         0.420554
 H        -0.749954         0.694692         0.695447
 H        -0.530646         0.167596        -1.025439
 H        -0.322769        -0.915512         0.283589
 H         4.193249         0.717510         0.403916
 H         2.588942        -1.349447        -1.134852
 H         3.523770         0.280675        -2.744710
 H         1.826449        -0.042528        -3.041682
 H         3.313550         2.493648        -2.195288
 H         1.545221         2.431178        -2.458696
 H         2.608745         2.610444         1.182260
