19
Iteration:  2155charge 0 multiplicity 1
 C        -0.073908         0.022205         0.106148
 C         1.335628         0.359422        -0.057542
 O         2.222167         0.117487         1.114536
 C         3.249939         0.570013        -0.026718
 C         2.464393        -0.305567        -0.930555
 C         2.536325         0.365055        -2.267188
 C         2.376731         1.943819        -1.886664
 C         2.219395         1.750758        -0.280326
 O         2.083514         2.891854         0.486715
 H        -0.634190         0.658925         0.708915
 H        -0.535499         0.150161        -0.957349
 H        -0.168478        -1.070245         0.304475
 H         4.341641         0.558928         0.092178
 H         2.624508        -1.462488        -0.978375
 H         3.547238         0.140616        -2.797632
 H         1.761370         0.002426        -2.917148
 H         3.352627         2.474565        -2.066404
 H         1.536732         2.533793        -2.413649
 H         1.865766         2.544726         1.391790
