19
Iteration:   852charge 0 multiplicity 1
 C        -0.099114         0.371589        -0.007928
 C         1.425444         0.266958        -0.083130
 O         2.372488         0.157988         1.187539
 C         3.239855         0.573056         0.096567
 C         2.563345        -0.438102        -0.913125
 C         2.595984         0.384905        -2.324633
 C         2.158019         1.856769        -1.884488
 C         2.249433         1.678049        -0.366901
 O         1.972111         2.739703         0.496680
 H        -0.382387         1.199032         0.636940
 H        -0.371154         0.685718        -1.116328
 H        -0.594939        -0.575980         0.324153
 H         4.304439         0.750727         0.416288
 H         2.697417        -1.585949        -1.061349
 H         3.631887         0.397757        -2.655257
 H         1.972871        -0.029810        -3.114931
 H         2.902683         2.707856        -1.917685
 H         1.172648         2.444680        -2.038429
 H         1.448970         2.458387         1.254128
