19
Iteration:  4353
 C        -0.085866         0.169945        -0.033462
 C         1.414230         0.372278        -0.069403
 O         2.344911         0.072120         1.151426
 C         3.195899         0.570756         0.114708
 C         2.533207        -0.320231        -0.928315
 C         2.511526         0.345618        -2.258068
 C         2.264158         1.846081        -1.837517
 C         2.230704         1.753294        -0.328084
 O         2.002652         2.851681         0.435680
 H        -0.599919         1.045860         0.369465
 H        -0.187594         0.083117        -1.086747
 H        -0.254460        -0.814714         0.495030
 H         4.254313         0.734161         0.328143
 H         2.638378        -1.366826        -0.770111
 H         3.510993         0.438259        -2.795269
 H         1.712867         0.028153        -2.950017
 H         3.057645         2.484459        -2.110947
 H         1.223125         2.173053        -2.304783
 H         2.203501         2.701956         1.384356
