19
Iteration:    99
 C        -0.014477         0.216578         0.011506
 C         1.445280         0.375248        -0.021610
 O         2.291009         0.060213         1.166586
 C         3.195796         0.615310         0.041854
 C         2.472398        -0.356960        -0.930843
 C         2.579298         0.354435        -2.277838
 C         2.387843         1.850461        -1.832794
 C         2.144818         1.687385        -0.322592
 O         1.938815         2.872293         0.394110
 H        -0.395485         0.941223         0.756065
 H        -0.474563         0.237554        -0.913838
 H        -0.114120        -0.784999         0.481679
 H         4.277858         0.681404         0.154352
 H         2.640617        -1.433042        -0.721984
 H         3.474160         0.124682        -2.820036
 H         1.758046         0.092509        -2.964292
 H         3.145871         2.592765        -2.094410
 H         1.462500         2.227981        -2.333518
 H         1.900055         2.633004         1.341112
