19
Iteration:  3156
 C        -0.016810         0.295926         0.232328
 C         1.449774         0.407355         0.007213
 O         2.310416         0.096809         1.127962
 C         3.239280         0.544713         0.099236
 C         2.522190        -0.278348        -1.026460
 C         2.639051         0.267572        -2.417701
 C         2.406789         1.943362        -1.847312
 C         2.208027         1.664841        -0.337227
 O         1.715765         2.732812         0.378650
 H        -0.330563         1.194775         0.734841
 H        -0.375294         0.373755        -0.777423
 H        -0.330653        -0.670855         0.747456
 H         4.317295         0.499667         0.377985
 H         2.619115        -1.321334        -0.863927
 H         3.636548        -0.031372        -2.772710
 H         1.851153        -0.027269        -3.069236
 H         3.237765         2.578872        -2.058048
 H         1.476353         2.379957        -2.395150
 H         1.977520         2.743114         1.314629
