19
Iteration:   714
 C        -0.045759         0.152228        -0.026946
 C         1.439854         0.373920        -0.040527
 O         2.310608         0.114199         1.221314
 C         3.170438         0.613658         0.082911
 C         2.498128        -0.309850        -0.978215
 C         2.504825         0.357017        -2.310635
 C         2.323475         1.838191        -1.851123
 C         2.217767         1.714797        -0.336134
 O         2.038389         2.847646         0.471694
 H        -0.554167         0.860908         0.645773
 H        -0.404365         0.251176        -0.992704
 H        -0.363208        -0.873691         0.322169
 H         4.202784         0.592105         0.352988
 H         2.608323        -1.416333        -1.098002
 H         3.473553         0.202518        -2.787323
 H         1.675874         0.003806        -3.041447
 H         3.157216         2.474814        -2.083080
 H         1.471535         2.273255        -2.359525
 H         1.733878         2.508608         1.355495
