19
Iteration:  3100
 C        -0.059848        -0.030886        -0.068910
 C         1.422289         0.310017        -0.015716
 O         2.254551         0.239844         1.257398
 C         3.215622         0.613844         0.131911
 C         2.514681        -0.371169        -0.906616
 C         2.439481         0.433424        -2.310085
 C         2.273777         1.889198        -1.878422
 C         2.272905         1.703088        -0.311329
 O         2.105841         2.890061         0.373514
 H        -0.589296         0.465324         0.812293
 H        -0.418743         0.313469        -1.058444
 H        -0.203144        -1.103605        -0.031160
 H         4.281044         0.582703         0.452483
 H         2.552501        -1.445186        -0.853506
 H         3.354998         0.160034        -2.889039
 H         1.636106         0.141558        -2.965837
 H         3.048487         2.472622        -2.387539
 H         1.274500         2.269848        -2.297723
 H         2.239437         2.645893         1.308952
