19
Iteration:   569charge 0 multiplicity 1
 C        -0.011967        -0.049703         0.018093
 C         1.403456         0.262242        -0.029250
 O         2.233073         0.143968         1.181071
 C         3.159676         0.600750         0.162824
 C         2.487116        -0.254975        -1.005500
 C         2.386023         0.395575        -2.278924
 C         2.422324         1.881480        -1.849612
 C         2.187251         1.739927        -0.328676
 O         2.153231         2.954637         0.383805
 H        -0.505645         0.656202         0.643531
 H        -0.324269         0.163340        -1.056734
 H        -0.312109        -1.028205         0.294374
 H         4.197239         0.636849         0.512075
 H         2.591749        -1.469252        -1.107394
 H         3.237366         0.109045        -2.817810
 H         1.372903         0.211417        -2.846003
 H         3.429625         2.288250        -1.941248
 H         1.695352         2.453978        -2.416466
 H         1.918942         2.646847         1.300942
