19
Iteration:  3374charge 0 multiplicity 1
 C        -0.063218         0.158134         0.037025
 C         1.438294         0.412540        -0.091330
 O         2.231994         0.133241         1.157331
 C         3.230715         0.561732         0.150684
 C         2.520417        -0.269337        -0.894842
 C         2.574353         0.430158        -2.266141
 C         2.247740         1.830495        -1.879788
 C         2.265032         1.696649        -0.367735
 O         2.030356         2.786652         0.369091
 H        -0.618063         0.982820         0.496457
 H        -0.599971         0.007188        -0.891479
 H        -0.153133        -0.785448         0.740091
 H         4.308966         0.267590         0.401541
 H         2.541978        -1.315173        -0.505689
 H         3.578660         0.369139        -2.769367
 H         1.996730         0.045817        -3.106154
 H         2.833803         2.587506        -2.364961
 H         1.161583         2.020800        -2.097782
 H         2.079766         2.404673         1.285902
