19
Iteration:  2932
 C        -0.082836         0.017725        -0.032341
 C         1.412441         0.395430        -0.038273
 O         2.235454         0.094294         1.142746
 C         3.222827         0.582078         0.101083
 C         2.491116        -0.275392        -0.832903
 C         2.529702         0.355949        -2.264625
 C         2.269027         1.880260        -1.896140
 C         2.253045         1.679915        -0.374591
 O         2.125574         2.939748         0.407816
 H        -0.590784         0.698236         0.671968
 H        -0.528838         0.069477        -1.048415
 H        -0.098199        -1.111758         0.298265
 H         4.241939         0.671169         0.424936
 H         2.698156        -1.336346        -0.524826
 H         3.485536         0.099579        -2.718073
 H         1.747508         0.159792        -3.054575
 H         2.904552         2.813896        -2.191743
 H         1.242120         2.113632        -2.097409
 H         1.868241         2.792677         1.351056
