19
Iteration:  3712
 C        -0.036040         0.353511        -0.031019
 C         1.444596         0.338118        -0.052734
 O         2.311962         0.035126         1.139109
 C         3.257901         0.614167         0.106454
 C         2.572792        -0.284233        -0.928650
 C         2.568320         0.346968        -2.321050
 C         2.259919         1.858857        -1.877472
 C         2.165551         1.727869        -0.348663
 O         1.921238         2.733387         0.534758
 H        -0.480793         0.893627         0.745943
 H        -0.377065         0.714280        -1.012262
 H        -0.381043        -0.746716         0.114074
 H         4.348629         0.527651         0.367899
 H         2.766401        -1.327858        -0.660765
 H         3.463649         0.339967        -2.891248
 H         1.673937         0.017550        -2.913433
 H         3.022834         2.429875        -2.493562
 H         1.253895         2.083746        -2.169561
 H         2.067778         2.448365         1.441302
