19
Iteration:  5000
 C        -0.076295        -0.077933        -0.080307
 C         1.413148         0.370656        -0.065223
 O         2.210121         0.213434         1.145744
 C         3.203498         0.527114         0.153731
 C         2.521378        -0.339694        -0.958094
 C         2.465624         0.386599        -2.254251
 C         2.263418         1.955369        -1.832723
 C         2.187968         1.733219        -0.338241
 O         2.233158         2.909382         0.472791
 H        -0.783455         0.611206         0.417674
 H        -0.376406        -0.231027        -1.151083
 H        -0.092119        -0.901984         0.570590
 H         4.198909         0.383860         0.477184
 H         2.419785        -1.489724        -0.892059
 H         3.377275         0.343997        -2.869834
 H         1.712702         0.290979        -3.012371
 H         3.090439         2.501888        -2.071643
 H         1.401094         2.458477        -2.390839
 H         2.105580         2.554400         1.399267
