19
Iteration:  3409charge 0 multiplicity 1
 C        -0.031914         0.016720        -0.182564
 C         1.425602         0.334177         0.000159
 O         2.306910         0.171033         1.307488
 C         3.178238         0.670171         0.119644
 C         2.501436        -0.288256        -0.905136
 C         2.353395         0.375942        -2.333393
 C         2.365874         1.808422        -1.833679
 C         2.129821         1.672767        -0.324200
 O         2.166158         2.908710         0.385678
 H        -0.579467         0.711779         0.408579
 H        -0.265705        -0.025294        -1.273450
 H        -0.227166        -1.049081         0.251736
 H         4.298748         0.707252         0.191279
 H         2.575486        -1.398046        -0.658185
 H         3.256193         0.109780        -2.976522
 H         1.349040         0.199493        -2.727562
 H         3.231289         2.363770        -1.961112
 H         1.535221         2.472079        -2.302685
 H         2.078056         2.701604         1.341889
