19
Iteration:  1099
 C        -0.013982        -0.155211         0.041812
 C         1.374513         0.438141        -0.056895
 O         2.148867         0.188169         1.203510
 C         3.180309         0.582055         0.013517
 C         2.438543        -0.254504        -0.937739
 C         2.398844         0.353999        -2.347409
 C         2.485753         1.867270        -1.834656
 C         2.255458         1.794204        -0.296998
 O         2.118137         2.925120         0.437615
 H        -0.539992         0.440359         0.786860
 H        -0.505680        -0.119012        -1.031508
 H         0.125213        -1.178048         0.308689
 H         4.294893         0.564477         0.279719
 H         2.576650        -1.386005        -0.774300
 H         3.212492         0.112485        -2.927780
 H         1.526087        -0.025558        -2.858931
 H         3.438942         2.387201        -2.119598
 H         1.745074         2.348937        -2.410370
 H         2.301637         2.686895         1.381044
