19
Iteration:  1007charge 0 multiplicity 1
 C        -0.066775         0.376573         0.035333
 C         1.464664         0.328860        -0.011777
 O         2.283320         0.096677         1.104611
 C         3.258739         0.638084         0.095778
 C         2.614280        -0.364686        -0.983641
 C         2.575808         0.319445        -2.289833
 C         2.208164         1.806682        -1.889166
 C         2.192968         1.686033        -0.365194
 O         1.943622         2.743368         0.526065
 H        -0.431679         1.246649         0.696558
 H        -0.416288         0.557683        -0.927878
 H        -0.565480        -0.598508         0.371427
 H         4.241260         0.768300         0.388222
 H         2.935707        -1.368155        -0.851580
 H         3.558638         0.514247        -2.665555
 H         1.981715         0.016566        -3.184685
 H         3.034706         2.422896        -2.335438
 H         1.169390         2.239890        -2.233161
 H         1.773122         2.402888         1.424186
