19
Iteration:  2098charge 0 multiplicity 1
 C         0.002551         0.333460         0.053508
 C         1.402751         0.314555        -0.010902
 O         2.215146         0.073148         1.088434
 C         3.298305         0.534376         0.137916
 C         2.630693        -0.353936        -0.969862
 C         2.579208         0.436663        -2.354201
 C         2.136045         1.819187        -1.841283
 C         2.227416         1.712331        -0.345643
 O         1.980718         2.771623         0.474044
 H        -0.366973         1.091483         0.753663
 H        -0.326048         0.526108        -1.010397
 H        -0.502788        -0.524140         0.391667
 H         4.273842         0.602280         0.577685
 H         2.797617        -1.598848        -0.957885
 H         3.547287         0.493587        -2.894970
 H         1.812102        -0.039040        -3.065921
 H         2.804859         2.681622        -2.265025
 H         1.130925         2.175520        -2.104716
 H         2.256594         2.651567         1.410657
