19
Iteration:  4104charge 0 multiplicity 1
 C        -0.070896        -0.011693         0.131680
 C         1.381687         0.362496        -0.092288
 O         2.226636         0.053576         1.186247
 C         3.145652         0.567809         0.122905
 C         2.471730        -0.283638        -0.969834
 C         2.560692         0.490330        -2.337892
 C         2.385802         1.984978        -1.829712
 C         2.136537         1.693511        -0.351480
 O         2.154759         2.849986         0.348688
 H        -0.316911         0.550047         1.022686
 H        -0.749543         0.156482        -0.756631
 H        -0.131425        -1.212574         0.356940
 H         4.216338         0.545388         0.376158
 H         2.706338        -1.320765        -1.001556
 H         3.509146         0.169478        -2.803033
 H         1.729494         0.036635        -2.971512
 H         3.408821         2.562860        -1.780455
 H         1.638848         2.614938        -2.387813
 H         1.638171         2.939175         1.171374
