19
Iteration:  4198charge 0 multiplicity 1
 C         0.029802         0.301466         0.000252
 C         1.413592         0.384464        -0.166626
 O         2.302677         0.086900         1.116774
 C         3.230102         0.641828         0.194033
 C         2.543081        -0.340501        -0.991330
 C         2.546367         0.351612        -2.197455
 C         2.180180         1.849538        -1.896389
 C         2.187487         1.663833        -0.349865
 O         2.026265         2.736721         0.501086
 H        -0.304963         1.148044         0.718547
 H        -0.513694         0.339682        -0.900884
 H        -0.286922        -0.615273         0.452623
 H         4.275712         0.779423         0.442129
 H         2.762489        -1.438416        -0.941599
 H         3.522145         0.247783        -2.775924
 H         1.840687         0.088802        -2.976792
 H         2.884395         2.589922        -2.264014
 H         1.135816         2.227323        -2.238325
 H         1.743347         2.366008         1.356409
