19
Iteration:   218
 C         0.017840        -0.078819        -0.048479
 C         1.418346         0.418236        -0.011216
 O         2.215631         0.173986         1.275493
 C         3.173960         0.425604         0.174535
 C         2.489086        -0.302319        -0.949320
 C         2.403848         0.396243        -2.303296
 C         2.382205         1.925648        -1.903534
 C         2.238761         1.798092        -0.362137
 O         2.112936         2.955828         0.387717
 H        -0.624890         0.633961         0.642017
 H        -0.164236         0.022303        -1.081340
 H         0.001417        -1.202755         0.204864
 H         4.238459         0.343141         0.400930
 H         2.372519        -1.415807        -0.921168
 H         3.155519         0.118265        -3.067682
 H         1.453597         0.013197        -2.764859
 H         3.236608         2.521419        -2.336802
 H         1.482934         2.379070        -2.275871
 H         1.991248         2.672231         1.305352
