19
Iteration:  3542charge 0 multiplicity 1
 C        -0.091400         0.268132        -0.027870
 C         1.461047         0.284229        -0.081216
 O         2.328333         0.133005         1.187716
 C         3.281282         0.559725         0.192186
 C         2.554303        -0.343348        -0.968842
 C         2.517927         0.418639        -2.320488
 C         2.232522         1.824283        -1.850900
 C         2.185983         1.636989        -0.375487
 O         2.009473         2.828443         0.441949
 H        -0.468703         1.122544         0.593721
 H        -0.675100         0.304796        -1.004268
 H        -0.408795        -0.606004         0.483431
 H         4.231757         0.822815         0.618974
 H         2.858733        -1.354384        -0.746975
 H         3.542689         0.431835        -2.829807
 H         1.847295         0.047501        -3.133483
 H         3.017435         2.484736        -2.067737
 H         1.233198         2.205560        -2.190858
 H         1.608094         2.512123         1.262532
