19
Iteration:  2504
 C        -0.017527         0.128407         0.089264
 C         1.414287         0.400767        -0.046490
 O         2.288660         0.169687         1.178071
 C         3.165332         0.552227         0.172058
 C         2.453877        -0.331983        -1.035500
 C         2.475872         0.334784        -2.361130
 C         2.496106         1.898272        -1.855933
 C         2.267462         1.683760        -0.356453
 O         1.870906         2.840562         0.456128
 H        -0.478579         0.715828         0.862683
 H        -0.497449         0.376757        -0.907210
 H        -0.252695        -1.025571         0.237379
 H         4.219197         0.525618         0.397664
 H         2.787391        -1.382645        -1.106260
 H         3.359613        -0.002027        -2.899349
 H         1.543237         0.186881        -3.035838
 H         3.481799         2.346920        -2.093045
 H         1.718710         2.481314        -2.317898
 H         2.379256         2.764275         1.317469
