19
Iteration:  1522
 C         0.027969         0.128916         0.141078
 C         1.411069         0.448236        -0.044247
 O         2.222096         0.057555         1.186722
 C         3.196230         0.539886         0.105641
 C         2.418327        -0.285526        -0.926864
 C         2.632069         0.377163        -2.286840
 C         2.291624         1.880494        -1.957202
 C         2.203516         1.679311        -0.371954
 O         2.031371         2.860948         0.376803
 H        -0.509132         0.852209         0.724224
 H        -0.593852         0.140994        -0.819058
 H        -0.050599        -0.828714         0.571976
 H         4.269108         0.517891         0.392519
 H         2.517523        -1.340403        -0.932305
 H         3.676919         0.239411        -2.669802
 H         2.033288         0.074292        -3.082467
 H         2.934998         2.676137        -2.275797
 H         1.297265         2.196676        -2.322299
 H         2.083447         2.696794         1.349387
