19
Iteration:  3486
 C        -0.137446         0.151870         0.232102
 C         1.358367         0.339196        -0.065727
 O         2.320300         0.070434         1.170998
 C         3.141108         0.543079         0.011282
 C         2.480375        -0.302223        -0.990433
 C         2.732644         0.376667        -2.288927
 C         2.385222         1.899886        -1.882011
 C         2.195283         1.724608        -0.393416
 O         1.944339         2.846654         0.394634
 H        -0.281893         0.879696         1.028808
 H        -0.691854         0.646287        -0.631083
 H        -0.598935        -0.866460         0.379177
 H         4.186075         0.783882         0.248324
 H         2.780805        -1.323999        -0.712568
 H         3.838253         0.215278        -2.573013
 H         2.095697        -0.043083        -3.093641
 H         3.049959         2.590305        -2.219394
 H         1.421269         2.232028        -2.423887
 H         1.983133         2.555620         1.338025
