19
Iteration:   420charge 0 multiplicity 1
 C        -0.077570        -0.022676         0.014066
 C         1.379418         0.253127        -0.012828
 O         2.265838         0.090723         1.249366
 C         3.159878         0.603199         0.074005
 C         2.480095        -0.251946        -0.943961
 C         2.425187         0.431068        -2.282236
 C         2.473632         1.864349        -1.945636
 C         2.174808         1.725626        -0.282479
 O         2.116488         2.934483         0.374082
 H        -0.470593         0.742895         0.661934
 H        -0.543397         0.270755        -0.973643
 H        -0.335509        -1.042580         0.394949
 H         4.241104         0.745127         0.254610
 H         2.805771        -1.260783        -0.830127
 H         3.225144         0.198548        -3.048693
 H         1.462730         0.222075        -2.792261
 H         3.344652         2.511688        -2.068806
 H         1.652595         2.471330        -2.457866
 H         2.201429         2.647388         1.306007
