19
Iteration:   159
 C        -0.008347         0.253236         0.115910
 C         1.468974         0.370097        -0.084217
 O         2.193215         0.144933         1.083622
 C         3.252436         0.550620         0.165586
 C         2.583517        -0.316475        -0.951472
 C         2.598069         0.338098        -2.324045
 C         2.270000         1.820898        -1.954258
 C         2.106636         1.667413        -0.380250
 O         1.989293         2.825650         0.504941
 H        -0.332076         1.041334         0.845358
 H        -0.694877         0.467613        -0.810354
 H        -0.207262        -0.729591         0.583410
 H         4.268718         0.564449         0.622511
 H         2.540391        -1.385950        -0.891146
 H         3.709815         0.328686        -2.618456
 H         1.980004        -0.097821        -3.099367
 H         3.184511         2.444600        -2.235112
 H         1.336678         2.249896        -2.437586
 H         1.921218         2.523410         1.441901
