19
Iteration:  4724charge 0 multiplicity 1
 C        -0.061880         0.236173         0.168520
 C         1.436593         0.308088        -0.133963
 O         2.225867         0.068341         1.136190
 C         3.116594         0.567292         0.210608
 C         2.575735        -0.277908        -0.961667
 C         2.594792         0.441519        -2.296898
 C         2.326404         1.889412        -1.903006
 C         2.165615         1.685299        -0.375864
 O         2.011148         2.739356         0.353715
 H        -0.158747         0.982651         0.926573
 H        -0.491896         0.620416        -0.742229
 H        -0.266012        -0.776861         0.648662
 H         4.138961         0.859117         0.444852
 H         2.641791        -1.336106        -0.796293
 H         3.672716         0.333802        -2.624010
 H         2.072799        -0.034136        -3.154187
 H         3.204819         2.512213        -2.108317
 H         1.349785         2.344180        -2.361840
 H         2.077043         2.508978         1.298397
