19
Iteration:   364
 C        -0.062723         0.037367         0.034110
 C         1.453337         0.384116         0.036168
 O         2.262202         0.211995         1.144415
 C         3.205318         0.536945         0.062462
 C         2.403845        -0.340145        -0.937460
 C         2.524066         0.328148        -2.283710
 C         2.315770         1.951953        -1.906741
 C         2.265682         1.727132        -0.393770
 O         2.071113         2.857250         0.499097
 H        -0.711450         0.657769         0.633600
 H        -0.247649         0.229207        -1.114787
 H        -0.245586        -1.024321         0.225472
 H         4.257272         0.606129         0.395407
 H         2.560698        -1.466395        -0.900394
 H         3.457956         0.195783        -2.793851
 H         1.761021        -0.133902        -3.019781
 H         3.173741         2.515064        -2.256181
 H         1.342468         2.306456        -2.350880
 H         1.942786         2.650298         1.426659
