19
Iteration:   523charge 0 multiplicity 1
 C         0.035240         0.218952        -0.016853
 C         1.430044         0.331581        -0.019367
 O         2.287818         0.155172         1.140774
 C         3.209631         0.529910         0.137307
 C         2.436302        -0.343845        -0.940185
 C         2.552405         0.384351        -2.311698
 C         2.216002         1.838773        -1.951447
 C         2.229397         1.729054        -0.320140
 O         2.011706         2.834903         0.517320
 H        -0.445686         0.954510         0.645867
 H        -0.296157         0.281353        -1.048143
 H        -0.216762        -0.744406         0.343878
 H         4.285713         0.585055         0.377480
 H         2.630538        -1.410050        -0.876429
 H         3.618913         0.405373        -2.683336
 H         1.878318        -0.068679        -3.038550
 H         3.043351         2.375999        -2.492133
 H         1.232374         2.236495        -2.237480
 H         2.052645         2.423316         1.421137
