19
Iteration:  4243charge 0 multiplicity 1
 C        -0.056660         0.234708         0.117981
 C         1.407292         0.290714        -0.050158
 O         2.375259         0.123897         1.168406
 C         3.158363         0.498140         0.085248
 C         2.445195        -0.356084        -0.982467
 C         2.649764         0.476827        -2.281601
 C         2.319104         1.894708        -1.813049
 C         2.184309         1.663778        -0.354995
 O         1.963823         2.804285         0.332950
 H        -0.529028         0.876484         0.881127
 H        -0.638007         0.383170        -0.755249
 H        -0.431067        -0.849162         0.327298
 H         4.183756         0.698853         0.361609
 H         2.492789        -1.449265        -0.983696
 H         3.722505         0.370810        -2.680030
 H         2.067007         0.140232        -3.140818
 H         3.015769         2.688839        -1.889601
 H         1.336269         2.443331        -2.203318
 H         1.955020         2.551145         1.274886
