19
Iteration:  2832charge 0 multiplicity 1
 C        -0.054986         0.311213         0.108030
 C         1.445975         0.284125        -0.006171
 O         2.372514         0.144168         1.172744
 C         3.241365         0.534748         0.061991
 C         2.492187        -0.280436        -0.903629
 C         2.491469         0.409652        -2.287344
 C         2.438822         1.892148        -1.811903
 C         2.205342         1.659220        -0.434666
 O         1.804789         2.732142         0.371044
 H        -0.384206         1.140447         0.674310
 H        -0.373836         0.363020        -0.940737
 H        -0.413435        -0.773072         0.335901
 H         4.309028         0.429509         0.102898
 H         2.844127        -1.281294        -0.922913
 H         3.445624         0.308332        -2.765839
 H         1.703189         0.014954        -3.032952
 H         3.454434         2.373235        -2.047897
 H         1.604061         2.410694        -2.243664
 H         1.733168         2.406483         1.295795
