19
Iteration:  1637
 C        -0.051921        -0.072584        -0.104252
 C         1.367445         0.421865         0.082404
 O         2.238916         0.183619         1.287235
 C         3.220593         0.593850         0.071525
 C         2.495277        -0.244821        -0.953051
 C         2.458469         0.365816        -2.354223
 C         2.274073         1.846355        -1.852615
 C         2.184830         1.706276        -0.309750
 O         2.243142         2.878624         0.400098
 H        -0.691165         0.723125         0.498758
 H        -0.236086         0.207947        -1.141245
 H        -0.241248        -1.202649         0.103662
 H         4.252320         0.616636         0.345446
 H         2.589709        -1.361432        -1.007979
 H         3.205333         0.001943        -3.044474
 H         1.468581        -0.030440        -2.827924
 H         3.109088         2.535669        -2.074753
 H         1.497045         2.537793        -2.194726
 H         1.841847         2.723009         1.262566
