19
Iteration:  1427charge 0 multiplicity 1
 C        -0.043109         0.148761         0.088207
 C         1.398708         0.364625         0.000668
 O         2.304299         0.155969         1.192658
 C         3.229160         0.569055         0.168149
 C         2.511302        -0.323318        -0.952333
 C         2.477846         0.403204        -2.295228
 C         2.296317         1.891132        -1.902493
 C         2.226042         1.682703        -0.385696
 O         2.034157         2.796538         0.350864
 H        -0.571089         0.830471         0.730420
 H        -0.508853         0.352544        -0.944063
 H        -0.281396        -0.889646         0.399527
 H         4.253038         0.673179         0.334777
 H         2.700465        -1.379695        -0.897233
 H         3.487255         0.181490        -2.768294
 H         1.706555        -0.111548        -2.999550
 H         3.250936         2.457052        -2.178835
 H         1.534515         2.475274        -2.386229
 H         1.745836         2.481527         1.228593
