19
Iteration:  1561
 C        -0.090937         0.346911         0.206782
 C         1.399762         0.190974        -0.115306
 O         2.294003         0.154857         1.141031
 C         3.197129         0.606753         0.032353
 C         2.498405        -0.354178        -0.956800
 C         2.671725         0.411674        -2.261396
 C         2.331999         1.916756        -1.867922
 C         2.180294         1.630850        -0.358102
 O         1.947503         2.746644         0.360155
 H         0.003370         1.111425         1.055954
 H        -0.613089         0.581091        -0.683407
 H        -0.487472        -0.611307         0.700985
 H         4.332998         0.704743         0.236620
 H         2.747366        -1.462125        -0.882712
 H         3.715679         0.156262        -2.409433
 H         1.957560        -0.064565        -3.032222
 H         3.095806         2.674492        -2.172287
 H         1.372897         2.185774        -2.382164
 H         1.633449         2.442686         1.256274
