19
Iteration:  4236charge 0 multiplicity 1
 C        -0.127080         0.249844         0.124449
 C         1.445498         0.298355        -0.036290
 O         2.346170         0.151076         1.199292
 C         3.198880         0.501716         0.130707
 C         2.468391        -0.363833        -1.076006
 C         2.645125         0.484119        -2.329528
 C         2.277146         1.899545        -1.808229
 C         2.215884         1.598391        -0.325025
 O         1.942251         2.814442         0.357131
 H        -0.452787         0.969250         0.828806
 H        -0.626709         0.549273        -0.868173
 H        -0.252178        -0.819515         0.419426
 H         4.278697         0.591326         0.402457
 H         2.687893        -1.407035        -1.247481
 H         3.684915         0.384022        -2.557579
 H         1.989359         0.034342        -3.096292
 H         3.099776         2.594937        -2.098855
 H         1.376681         2.099217        -2.318475
 H         1.997213         2.678895         1.341396
