19
Iteration:  2013
 C        -0.147120        -0.086798         0.107995
 C         1.396250         0.369173        -0.063631
 O         2.177129         0.072787         1.074446
 C         3.192176         0.619477         0.113169
 C         2.487724        -0.280609        -0.923917
 C         2.424467         0.384787        -2.345075
 C         2.490231         1.973904        -1.824073
 C         2.272937         1.790512        -0.345464
 O         2.160029         2.898060         0.428976
 H        -0.458108         0.673775         0.794593
 H        -0.812649        -0.136389        -0.853360
 H        -0.045673        -1.109722         0.509758
 H         4.137332         0.715051         0.651176
 H         2.654748        -1.357619        -1.074460
 H         3.231860         0.017753        -3.104043
 H         1.465315        -0.013840        -2.652785
 H         3.401595         2.530138        -2.142785
 H         1.602394         2.529942        -2.240361
 H         1.917965         2.521911         1.294958
