19
Iteration:  2041
 C        -0.013847         0.058409         0.048648
 C         1.424574         0.373147         0.011218
 O         2.245651         0.201701         1.251988
 C         3.200062         0.495195         0.013482
 C         2.408145        -0.308295        -0.989807
 C         2.476843         0.486027        -2.382862
 C         2.482996         1.920663        -1.806839
 C         2.184807         1.683654        -0.344681
 O         1.985484         2.779427         0.417742
 H        -0.469868         0.837406         0.735507
 H        -0.397460         0.111104        -0.903513
 H        -0.068032        -0.919592         0.512265
 H         4.281094         0.417781         0.229031
 H         2.634095        -1.415588        -1.232987
 H         3.268412         0.174251        -2.965688
 H         1.542640         0.142152        -2.932165
 H         3.458992         2.450463        -1.933982
 H         1.716239         2.484926        -2.272045
 H         2.252547         2.659465         1.330285
