19
Iteration:    81
 C        -0.101729         0.031698         0.059921
 C         1.404039         0.319634        -0.080734
 O         2.255328         0.114049         1.139238
 C         3.258901         0.625937         0.250753
 C         2.517369        -0.238212        -0.955719
 C         2.455843         0.371720        -2.300789
 C         2.337977         1.842084        -1.873049
 C         2.371269         1.734568        -0.356935
 O         2.027103         2.886508         0.357337
 H        -0.673239         0.733127         0.596920
 H        -0.643050         0.123442        -1.000685
 H        -0.517815        -0.919819         0.309126
 H         4.231097         0.713160         0.756972
 H         2.633645        -1.359897        -0.879997
 H         3.363728         0.141089        -2.839140
 H         1.583640        -0.023247        -2.931789
 H         3.187233         2.365880        -2.239667
 H         1.416328         2.554792        -2.040199
 H         1.868510         2.560111         1.268544
