19
Iteration:  3790
 C        -0.033953        -0.170445         0.119439
 C         1.338694         0.389528        -0.089883
 O         2.123811         0.078429         1.129822
 C         3.160876         0.596504         0.072427
 C         2.428972        -0.282555        -1.010388
 C         2.540501         0.451968        -2.346170
 C         2.447339         1.872561        -1.810079
 C         2.247097         1.750762        -0.340942
 O         2.156184         2.971301         0.475870
 H        -0.587566         0.651112         0.573298
 H        -0.593738        -0.306412        -0.860447
 H        -0.085724        -1.056378         0.739678
 H         4.261587         0.753572         0.302002
 H         2.671287        -1.326352        -0.890976
 H         3.359184         0.398242        -3.026192
 H         1.655151         0.233513        -2.981619
 H         3.365112         2.457964        -1.995848
 H         1.752377         2.554629        -2.238200
 H         2.051222         2.690853         1.422364
