19
Iteration:   454charge 0 multiplicity 1
 C         0.014497         0.189336         0.094315
 C         1.422001         0.407426        -0.005629
 O         2.243507         0.111690         1.148965
 C         3.238259         0.480165         0.027436
 C         2.475618        -0.322675        -0.981025
 C         2.561693         0.421951        -2.274878
 C         2.357425         1.824107        -1.828468
 C         2.258235         1.679956        -0.305975
 O         1.927740         2.875039         0.349773
 H        -0.423725         0.864874         0.838442
 H        -0.470187         0.252216        -0.859042
 H        -0.249033        -0.845697         0.450507
 H         4.311715         0.388137         0.266233
 H         2.484174        -1.319412        -0.824934
 H         3.584497         0.217396        -2.797767
 H         1.774008         0.164358        -2.930263
 H         3.159933         2.569133        -2.031760
 H         1.339970         2.141506        -2.224049
 H         1.701962         2.760972         1.288976
