19
Iteration:  4639
 C        -0.064973         0.093636        -0.078745
 C         1.463131         0.303376        -0.099929
 O         2.220555         0.220151         1.177757
 C         3.210543         0.683592         0.223607
 C         2.536110        -0.268026        -0.979973
 C         2.395886         0.348843        -2.382243
 C         2.350421         1.788057        -1.815553
 C         2.281704         1.712620        -0.311019
 O         2.118313         2.847567         0.493636
 H        -0.682088         0.559532         0.643447
 H        -0.779436         0.015217        -0.994365
 H        -0.222825        -0.980688         0.222454
 H         4.250751         0.867889         0.558062
 H         2.598835        -1.383937        -0.907839
 H         3.211891        -0.031897        -3.075091
 H         1.475581         0.067197        -2.944000
 H         3.196146         2.281822        -2.155958
 H         1.386005         2.273008        -2.271679
 H         1.963604         2.456260         1.382037
