19
Iteration:  2924charge 0 multiplicity 1
 C        -0.158607        -0.038937        -0.052964
 C         1.386027         0.423285         0.007243
 O         2.246855         0.115551         1.159117
 C         3.267514         0.608061         0.113488
 C         2.485836        -0.281447        -0.879297
 C         2.547876         0.385957        -2.260915
 C         2.226495         1.860700        -1.848218
 C         2.214464         1.706431        -0.291724
 O         2.215939         2.936791         0.339727
 H        -0.875972         0.462453         0.678364
 H        -0.538736        -0.048070        -1.085683
 H        -0.017912        -1.040564         0.126563
 H         4.340923         0.842159         0.335948
 H         2.431351        -1.422673        -0.885508
 H         3.568782         0.221752        -2.659658
 H         1.909022        -0.054205        -2.964569
 H         3.002739         2.651465        -2.061979
 H         1.191073         2.196147        -2.218144
 H         1.841627         2.536744         1.172473
