19
Iteration:  2159charge 0 multiplicity 1
 C        -0.072952        -0.011774         0.085182
 C         1.368960         0.348072        -0.097541
 O         2.201459         0.122177         1.128171
 C         3.238480         0.565961        -0.025722
 C         2.468724        -0.319219        -0.885258
 C         2.524906         0.371978        -2.298093
 C         2.398241         1.975847        -1.867551
 C         2.226401         1.722427        -0.310156
 O         2.078367         2.913926         0.484090
 H        -0.557443         0.723340         0.850902
 H        -0.588033         0.161530        -0.850951
 H        -0.108382        -1.094912         0.436483
 H         4.333194         0.593488         0.228525
 H         2.511983        -1.327621        -0.876195
 H         3.449218         0.111404        -2.904450
 H         1.648143         0.131878        -2.928960
 H         3.344242         2.415591        -2.072645
 H         1.578048         2.550519        -2.368479
 H         1.963759         2.465965         1.348609
