19
Iteration:  4960
 C        -0.118167         0.114778        -0.034660
 C         1.406593         0.368997        -0.090077
 O         2.308969         0.144226         1.143509
 C         3.282357         0.495237         0.104807
 C         2.518117        -0.345880        -0.923028
 C         2.511493         0.428892        -2.242304
 C         2.287253         1.910359        -1.821748
 C         2.235396         1.749724        -0.358404
 O         2.023297         2.825083         0.435698
 H        -0.602017         0.973556         0.532615
 H        -0.626415         0.228444        -0.958068
 H        -0.533675        -0.849223         0.385759
 H         4.374524         0.589030         0.565313
 H         2.727424        -1.431074        -0.912702
 H         3.498768         0.213099        -2.731520
 H         1.848314        -0.131379        -2.939324
 H         3.068304         2.719353        -2.187034
 H         1.268059         2.278223        -2.088588
 H         2.073127         2.381384         1.319215
