19
Iteration:   916charge 0 multiplicity 1
 C        -0.099711        -0.131965         0.108188
 C         1.390902         0.249488        -0.010261
 O         2.146831         0.148252         1.143309
 C         3.198033         0.648421         0.158939
 C         2.473915        -0.270244        -0.984648
 C         2.489672         0.499357        -2.350038
 C         2.437836         1.961863        -1.793614
 C         2.255120         1.706605        -0.329688
 O         2.161465         2.912227         0.314580
 H        -0.549392         0.602350         0.709841
 H        -0.728481         0.035376        -0.860038
 H        -0.406123        -1.068279         0.530755
 H         4.309036         0.367025         0.304557
 H         2.587928        -1.420032        -0.914968
 H         3.291237        -0.097064        -2.997107
 H         1.528148         0.262921        -2.721580
 H         3.469099         2.346375        -1.983462
 H         1.653164         2.570177        -2.356542
 H         2.051524         2.623460         1.242224
