19
Iteration:  4829
 C        -0.009172        -0.017790        -0.083657
 C         1.446344         0.365293         0.015719
 O         2.199535         0.148768         1.185729
 C         3.147577         0.615347         0.179821
 C         2.451269        -0.267652        -0.922377
 C         2.439718         0.424464        -2.335615
 C         2.295090         1.850729        -1.851330
 C         2.233553         1.719585        -0.329715
 O         2.197891         2.870769         0.388075
 H        -0.695672         0.670030         0.548068
 H        -0.273798        -0.069761        -1.147216
 H        -0.144686        -1.111322         0.245639
 H         4.266252         0.757881         0.413633
 H         2.599101        -1.362439        -0.797103
 H         3.437226         0.119114        -2.686144
 H         1.553618         0.180106        -2.976244
 H         3.100056         2.621116        -2.165538
 H         1.417661         2.326603        -2.087059
 H         2.216383         2.425697         1.267481
