19
Iteration:   717
 C        -0.023022         0.129767        -0.011784
 C         1.440411         0.372632        -0.038059
 O         2.288890         0.115550         1.190092
 C         3.202063         0.614971         0.110372
 C         2.471170        -0.282797        -0.973182
 C         2.482182         0.346406        -2.321965
 C         2.323796         1.827434        -1.875486
 C         2.199654         1.732188        -0.307610
 O         2.055442         2.837922         0.476571
 H        -0.590759         0.840233         0.656803
 H        -0.431966         0.231209        -1.018633
 H        -0.337031        -0.882431         0.298733
 H         4.284426         0.660986         0.364696
 H         2.574200        -1.306760        -0.997920
 H         3.494167         0.183296        -2.805263
 H         1.801091         0.013259        -3.010869
 H         3.228298         2.392574        -2.150104
 H         1.560331         2.406395        -2.393628
 H         1.641359         2.463682         1.276831
