19
Iteration:  3384charge 0 multiplicity 1
 C        -0.092409         0.094504        -0.036850
 C         1.424784         0.322009         0.013159
 O         2.251803         0.198140         1.168178
 C         3.208088         0.524763         0.155015
 C         2.548772        -0.337211        -0.907091
 C         2.499299         0.420865        -2.264991
 C         2.247302         1.883990        -1.848937
 C         2.277470         1.676770        -0.403730
 O         2.072966         2.868390         0.356763
 H        -0.567459         0.956710         0.476274
 H        -0.292223        -0.046642        -1.073954
 H        -0.434972        -0.829152         0.572462
 H         4.332639         0.568122         0.362706
 H         2.660186        -1.451260        -0.954169
 H         3.535513         0.344543        -2.607940
 H         1.732270         0.021321        -2.927400
 H         3.021076         2.613089        -2.173700
 H         1.250740         2.317771        -1.985014
 H         2.093697         2.559267         1.299953
