19
Iteration:  3725charge 0 multiplicity 1
 C        -0.043461         0.202517        -0.081717
 C         1.461831         0.366123        -0.104890
 O         2.321676         0.091440         1.184659
 C         3.232448         0.546135         0.125289
 C         2.561524        -0.333321        -0.938019
 C         2.486613         0.414725        -2.255639
 C         2.246388         1.876492        -1.921950
 C         2.234363         1.647948        -0.325390
 O         1.942200         2.824775         0.533959
 H        -0.282657         0.961946         0.638459
 H        -0.479127         0.590470        -1.062403
 H        -0.484922        -0.761052         0.135132
 H         4.282270         0.892618         0.371158
 H         2.547115        -1.409649        -1.022254
 H         3.342242         0.166779        -2.851475
 H         1.694551        -0.082889        -2.779327
 H         3.106390         2.600262        -1.914617
 H         1.384693         2.383777        -2.463730
 H         2.396242         2.489661         1.353112
