19
Iteration:  4796charge 0 multiplicity 1
 C        -0.136029         0.115371        -0.017470
 C         1.453671         0.310296        -0.028006
 O         2.247151         0.162415         1.123856
 C         3.235078         0.523272         0.148128
 C         2.609193        -0.308864        -0.944719
 C         2.464415         0.423509        -2.307871
 C         2.322158         1.856555        -1.802284
 C         2.192731         1.701194        -0.372183
 O         2.046039         2.880545         0.433087
 H        -0.550215         1.122886         0.359657
 H        -0.357622        -0.061816        -1.080182
 H        -0.291890        -0.759609         0.693573
 H         4.316290         0.546884         0.546831
 H         2.783996        -1.420480        -0.923274
 H         3.254873         0.117520        -3.002120
 H         1.597888        -0.010993        -2.865905
 H         3.218286         2.536080        -2.107112
 H         1.450871         2.294738        -2.137177
 H         2.077665         2.637924         1.366109
