19
Iteration:  4708
 C        -0.074135         0.154459         0.089593
 C         1.391499         0.341229        -0.076834
 O         2.191124         0.049412         1.156405
 C         3.255191         0.588095         0.092824
 C         2.511712        -0.331452        -0.924034
 C         2.656919         0.395105        -2.264260
 C         2.277285         1.882258        -1.900110
 C         2.211906         1.675000        -0.370621
 O         2.064717         2.918993         0.405972
 H        -0.386169         0.767626         1.011965
 H        -0.726056         0.465860        -0.761302
 H        -0.383061        -0.887423         0.228928
 H         4.265139         0.562578         0.529004
 H         2.704731        -1.428697        -1.001546
 H         3.546509         0.308125        -2.858061
 H         1.814027         0.022977        -2.852070
 H         3.063809         2.680935        -2.169317
 H         1.356217         2.199700        -2.285912
 H         1.775407         2.501584         1.268451
