19
Iteration:  2963charge 0 multiplicity 1
 C        -0.027324         0.273955         0.065855
 C         1.441523         0.329513        -0.041740
 O         2.261737         0.216048         1.196887
 C         3.304657         0.570552         0.146820
 C         2.596727        -0.340398        -0.959618
 C         2.480362         0.406071        -2.368179
 C         2.369530         1.864705        -1.867347
 C         2.196601         1.556459        -0.404835
 O         1.866322         2.735898         0.408214
 H        -0.416606         1.049867         0.699285
 H        -0.574515         0.395478        -0.878121
 H        -0.419408        -0.678856         0.654735
 H         4.287539         0.771178         0.544909
 H         2.810885        -1.408013        -0.863877
 H         3.416912         0.221986        -2.907394
 H         1.545168         0.111615        -3.016740
 H         3.286811         2.485358        -1.989358
 H         1.585788         2.445669        -2.267643
 H         1.966976         2.582604         1.357072
