19
Iteration:   470charge 0 multiplicity 1
 C        -0.005743         0.280426         0.116555
 C         1.469931         0.266335        -0.077722
 O         2.210098         0.153101         1.277151
 C         3.297203         0.493222         0.116131
 C         2.473939        -0.385772        -0.987215
 C         2.623201         0.390584        -2.331745
 C         2.249536         1.975147        -1.883731
 C         2.207682         1.662077        -0.393101
 O         1.926668         2.793251         0.368063
 H        -0.193670         1.119457         0.815736
 H        -0.559255         0.539829        -0.838980
 H        -0.346846        -0.616918         0.573850
 H         4.374793         0.584341         0.324885
 H         2.679545        -1.601005        -1.085040
 H         3.628380         0.333522        -2.705964
 H         1.939870        -0.062172        -3.135815
 H         3.015654         2.714277        -2.197479
 H         1.312845         2.401378        -2.189996
 H         2.052062         2.400809         1.275356
