19
Iteration:  2122charge 0 multiplicity 1
 C        -0.074948         0.229817         0.021912
 C         1.398423         0.334196        -0.146729
 O         2.314084         0.114996         1.273010
 C         3.268551         0.525492         0.125954
 C         2.460550        -0.359870        -0.957179
 C         2.631629         0.484120        -2.333353
 C         2.159685         1.919986        -1.833814
 C         2.239018         1.635311        -0.328450
 O         2.049274         2.767641         0.396116
 H        -0.429442         0.930214         0.715634
 H        -0.562188         0.410860        -1.023225
 H        -0.459906        -0.755033         0.339836
 H         4.357828         0.622198         0.155029
 H         2.524681        -1.522860        -0.939482
 H         3.729723         0.431426        -2.709435
 H         2.012144        -0.003773        -3.079945
 H         2.697523         2.873360        -2.094542
 H         1.064943         2.122876        -2.128786
 H         2.145846         2.678532         1.350962
