19
Iteration:  2560
 C        -0.139072        -0.088930        -0.066166
 C         1.366026         0.324981         0.032777
 O         2.252710         0.126295         1.205497
 C         3.225567         0.623170         0.129448
 C         2.453571        -0.301582        -0.918365
 C         2.443632         0.400066        -2.350403
 C         2.374437         1.853926        -1.825608
 C         2.242381         1.734209        -0.343241
 O         2.206046         2.955622         0.406980
 H        -0.503969         0.657795         0.552142
 H        -0.408737         0.138251        -1.111878
 H        -0.333210        -1.181035         0.268977
 H         4.286781         0.786309         0.323530
 H         2.510835        -1.365447        -0.816364
 H         3.426509         0.244373        -2.877158
 H         1.607062         0.189387        -3.083113
 H         3.291545         2.416513        -2.020425
 H         1.585187         2.516816        -2.113389
 H         1.491487         2.881415         1.050970
