19
Iteration:   163charge 0 multiplicity 1
 C        -0.069316         0.229082         0.081958
 C         1.445141         0.329980        -0.056794
 O         2.221576         0.127408         1.100504
 C         3.264759         0.560303         0.172517
 C         2.567108        -0.320921        -0.936321
 C         2.592546         0.357557        -2.341567
 C         2.279976         1.827371        -1.977172
 C         2.123155         1.685383        -0.387580
 O         2.002565         2.861377         0.512307
 H        -0.350511         1.087594         0.882333
 H        -0.594582         0.417440        -0.801119
 H        -0.157295        -0.826663         0.570591
 H         4.227048         0.560294         0.706044
 H         2.552600        -1.414013        -0.863740
 H         3.670687         0.231492        -2.679924
 H         1.927425        -0.088881        -3.081605
 H         3.119629         2.571702        -2.269512
 H         1.460370         2.195166        -2.505980
 H         2.000177         2.563879         1.443021
