19
Iteration:   843charge 0 multiplicity 1
 C        -0.052455         0.376997        -0.033570
 C         1.450954         0.275438        -0.090240
 O         2.341996         0.164622         1.196013
 C         3.311745         0.512928         0.173196
 C         2.551542        -0.294143        -0.941559
 C         2.594064         0.405410        -2.315287
 C         2.136369         1.890896        -1.819938
 C         2.161319         1.569799        -0.388491
 O         1.991962         2.733656         0.433291
 H        -0.274368         1.205426         0.687739
 H        -0.577155         0.685329        -0.952195
 H        -0.662044        -0.525034         0.311417
 H         4.329522         0.557208         0.486262
 H         2.683606        -1.419902        -0.809533
 H         3.544309         0.545857        -2.683273
 H         1.909247        -0.054690        -3.110368
 H         2.942017         2.619126        -2.076080
 H         1.133409         2.088039        -2.258242
 H         1.677649         2.216231         1.196181
