19
Iteration:  4206
 C         0.007970         0.335438         0.043566
 C         1.468841         0.373032        -0.103255
 O         2.244794         0.058890         1.110593
 C         3.197794         0.602838         0.137393
 C         2.568918        -0.340795        -0.939750
 C         2.594083         0.393736        -2.289141
 C         2.156863         1.892024        -1.853859
 C         2.234093         1.660892        -0.392980
 O         1.988319         2.742704         0.481526
 H        -0.294528         1.095846         0.861538
 H        -0.461496         0.400447        -0.971241
 H        -0.126939        -0.587616         0.510315
 H         4.236434         0.706989         0.538745
 H         2.749880        -1.448400        -0.806854
 H         3.538277         0.287025        -2.812259
 H         1.823384        -0.182580        -2.873888
 H         2.884614         2.667110        -2.340723
 H         1.195707         2.019702        -2.292316
 H         1.867604         2.350775         1.355975
