19
Iteration:  1554
 C        -0.152607         0.292026         0.232462
 C         1.325557         0.250466        -0.078628
 O         2.320695         0.184358         1.143905
 C         3.262114         0.568196        -0.001393
 C         2.517954        -0.356953        -0.967739
 C         2.694842         0.449482        -2.279227
 C         2.344566         1.834632        -1.889291
 C         2.168734         1.618215        -0.357936
 O         1.937398         2.767756         0.373813
 H        -0.203789         1.113410         0.934651
 H        -0.671678         0.564462        -0.694384
 H        -0.588660        -0.524040         0.676281
 H         4.352248         0.483902         0.359771
 H         2.833114        -1.353464        -1.055482
 H         3.770576         0.224587        -2.505610
 H         2.124068         0.164817        -3.101790
 H         3.107111         2.541677        -2.067474
 H         1.338578         2.139304        -2.186852
 H         1.758025         2.676682         1.320615
