19
Iteration:   681
 C        -0.039614         0.332710        -0.021051
 C         1.478097         0.335829         0.001055
 O         2.284910         0.080900         1.186870
 C         3.282883         0.544713         0.159393
 C         2.553323        -0.284666        -0.986475
 C         2.543584         0.455103        -2.270072
 C         2.146337         1.836774        -1.846172
 C         2.250985         1.625847        -0.388032
 O         1.923777         2.716731         0.398593
 H        -0.295090         1.246622         0.509732
 H        -0.348752         0.524550        -0.992856
 H        -0.502722        -0.599626         0.423805
 H         4.257896         0.375334         0.570266
 H         2.577175        -1.451091        -1.072260
 H         3.586993         0.516545        -2.492784
 H         2.038998        -0.108203        -3.154597
 H         2.905068         2.568800        -2.008481
 H         1.189078         2.200651        -2.160040
 H         2.546541         2.942922         1.096017
