19
Iteration:  3183charge 0 multiplicity 1
 C        -0.082436         0.180140         0.224167
 C         1.388737         0.275022        -0.112984
 O         2.330706         0.145320         1.154140
 C         3.226842         0.526001         0.115764
 C         2.498846        -0.323670        -0.984371
 C         2.659903         0.413294        -2.253141
 C         2.302818         1.926023        -1.837835
 C         2.174229         1.650200        -0.401625
 O         1.919621         2.816897         0.331308
 H        -0.193477         1.279221         0.466419
 H        -0.641976         0.232357        -0.772468
 H        -0.501828        -0.513611         0.957138
 H         4.289779         0.556799         0.338478
 H         2.768187        -1.426859        -0.932998
 H         3.706668         0.216657        -2.594128
 H         2.002343         0.181976        -3.179007
 H         3.077907         2.741515        -2.083404
 H         1.379049         2.168623        -2.377888
 H         1.963524         2.542197         1.276797
