19
Iteration:   979charge 0 multiplicity 1
 C        -0.089015         0.115631         0.012759
 C         1.415849         0.327264        -0.083107
 O         2.274382         0.218384         1.281004
 C         3.174603         0.529463         0.138566
 C         2.510794        -0.337162        -0.982790
 C         2.531523         0.452003        -2.237145
 C         2.307667         1.920622        -1.877257
 C         2.234348         1.667326        -0.384047
 O         2.049752         2.755708         0.384429
 H        -0.484835         0.795465         0.752723
 H        -0.582697         0.278072        -1.015659
 H        -0.209654        -0.911837         0.249435
 H         4.325092         0.498090         0.273709
 H         2.792507        -1.406054        -1.030699
 H         3.389396         0.461162        -2.975804
 H         1.682394         0.273671        -2.899784
 H         3.077984         2.579333        -2.263176
 H         1.402362         2.308980        -2.215338
 H         2.277153         2.578196         1.308862
