19
Iteration:  4459charge 0 multiplicity 1
 C        -0.029565         0.039008        -0.017264
 C         1.452919         0.347835        -0.025137
 O         2.154275         0.164185         1.203041
 C         3.237586         0.557860         0.078908
 C         2.525049        -0.317615        -0.884709
 C         2.473369         0.438813        -2.257671
 C         2.349529         1.882237        -1.849388
 C         2.286797         1.654065        -0.320743
 O         2.046524         2.880377         0.337750
 H        -0.592999         0.594789         0.862270
 H        -0.591990         0.246844        -0.909155
 H        -0.125925        -1.065468         0.153080
 H         4.284424         0.557771         0.342399
 H         2.821734        -1.364286        -1.025528
 H         3.236659         0.472293        -3.057825
 H         1.523874         0.045424        -2.690668
 H         3.150787         2.602466        -2.261278
 H         1.496003         2.417801        -2.156791
 H         1.923484         2.698050         1.273531
