19
Iteration:  3530
 C        -0.037994         0.319035         0.101969
 C         1.418365         0.292934        -0.073914
 O         2.257444         0.116128         1.175421
 C         3.209702         0.538492         0.155017
 C         2.598331        -0.372775        -0.949282
 C         2.653560         0.465543        -2.277036
 C         2.188130         1.887670        -1.857193
 C         2.271333         1.619680        -0.358064
 O         1.940411         2.799249         0.345354
 H        -0.370786         1.129817         0.728839
 H        -0.450064         0.395753        -0.950753
 H        -0.341321        -0.654928         0.476425
 H         4.253992         0.309165         0.285629
 H         2.753199        -1.420674        -1.187695
 H         3.686680         0.478928        -2.742821
 H         1.946664        -0.086105        -2.914297
 H         2.750398         2.655271        -2.248839
 H         1.108605         2.202685        -2.068568
 H         1.766970         2.478315         1.261300
