19
Iteration:  4967
 C        -0.162584         0.103220        -0.034840
 C         1.432823         0.343482        -0.053876
 O         2.244714         0.114460         1.154025
 C         3.277559         0.622442         0.123723
 C         2.532218        -0.302313        -0.923835
 C         2.512420         0.406489        -2.259491
 C         2.268637         1.913397        -1.857874
 C         2.269275         1.715951        -0.389630
 O         2.090161         2.792554         0.462431
 H        -0.634782         0.896105         0.506886
 H        -0.611122         0.023147        -1.063979
 H        -0.362682        -0.857690         0.346276
 H         4.283695         0.511057         0.422642
 H         2.720774        -1.416992        -0.767968
 H         3.495456         0.304634        -2.716693
 H         1.710735         0.139326        -2.930926
 H         3.003284         2.493877        -2.259202
 H         1.238661         2.305824        -2.173502
 H         2.123953         2.600998         1.393225
