19
Iteration:  4461
 C        -0.010077         0.050705        -0.025486
 C         1.456281         0.341287        -0.005296
 O         2.151306         0.153771         1.203686
 C         3.232480         0.551495         0.100595
 C         2.523054        -0.308294        -0.871201
 C         2.449070         0.418186        -2.264698
 C         2.353243         1.900710        -1.865261
 C         2.300304         1.653886        -0.346950
 O         2.050328         2.888044         0.344149
 H        -0.648935         0.528732         0.827015
 H        -0.599274         0.209782        -0.904870
 H        -0.126312        -1.097799         0.120135
 H         4.266497         0.578465         0.383037
 H         2.865152        -1.276109        -1.028122
 H         3.276340         0.503618        -3.052408
 H         1.498715         0.098458        -2.725284
 H         3.130704         2.554910        -2.245194
 H         1.410471         2.436499        -2.210996
 H         1.936099         2.643948         1.282236
