19
Iteration:  3488
 C        -0.122194         0.162267         0.241982
 C         1.367607         0.346118        -0.077827
 O         2.331144         0.064142         1.167773
 C         3.109567         0.542202         0.030729
 C         2.491705        -0.303864        -1.020276
 C         2.745744         0.356035        -2.273371
 C         2.356847         1.894766        -1.889584
 C         2.208958         1.742772        -0.377828
 O         1.930734         2.839583         0.400768
 H        -0.357294         0.921083         1.082793
 H        -0.674778         0.638001        -0.666201
 H        -0.556419        -0.782671         0.354061
 H         4.145403         0.699023         0.210149
 H         2.716705        -1.328948        -0.748145
 H         3.832471         0.234260        -2.585810
 H         2.156408        -0.053159        -3.146425
 H         3.095510         2.611259        -2.252502
 H         1.432517         2.201183        -2.433691
 H         2.003871         2.655704         1.349802
