19
Iteration:  4625
 C        -0.016160         0.087216         0.003790
 C         1.399605         0.434401        -0.151043
 O         2.241216         0.131285         1.214818
 C         3.223107         0.603406         0.198851
 C         2.488743        -0.332612        -0.941740
 C         2.435522         0.341388        -2.335023
 C         2.404087         1.893213        -1.931295
 C         2.256118         1.694430        -0.352174
 O         2.018696         2.811779         0.470229
 H        -0.291768         0.985333         0.566064
 H        -0.450342         0.127649        -0.976080
 H        -0.054310        -0.855724         0.652300
 H         4.263842         0.665269         0.529566
 H         2.644157        -1.367886        -0.761198
 H         3.392672         0.243006        -2.914942
 H         1.512591         0.091604        -2.916332
 H         3.184049         2.591354        -2.290472
 H         1.429937         2.420877        -2.248483
 H         1.804056         2.494469         1.371807
