19
Iteration:  3161charge 0 multiplicity 1
 C        -0.009754         0.335772         0.219129
 C         1.463025         0.406722        -0.004541
 O         2.321439         0.089618         1.167980
 C         3.212014         0.556852         0.074809
 C         2.522953        -0.309943        -0.995506
 C         2.662072         0.367507        -2.407209
 C         2.379250         1.910928        -1.824548
 C         2.191000         1.641387        -0.358903
 O         1.743614         2.710884         0.355734
 H        -0.570763         1.141007         0.802142
 H        -0.649970         0.222981        -0.751757
 H        -0.177528        -0.626782         0.750250
 H         4.265544         0.558256         0.305233
 H         2.539152        -1.462873        -0.911369
 H         3.637936         0.037288        -2.820834
 H         1.947880        -0.174515        -3.190955
 H         3.319211         2.491563        -2.131854
 H         1.503142         2.401423        -2.286843
 H         1.978168         2.832889         1.284512
