19
Iteration:  1106charge 0 multiplicity 1
 C        -0.017005        -0.168836        -0.007276
 C         1.402503         0.379328        -0.033195
 O         2.167539         0.233138         1.217414
 C         3.216708         0.581411         0.053271
 C         2.409779        -0.316238        -0.924859
 C         2.404939         0.415826        -2.292672
 C         2.460224         1.937276        -1.860567
 C         2.254204         1.746267        -0.370572
 O         2.133341         2.918766         0.409074
 H        -0.624907         0.346357         0.790530
 H        -0.414312        -0.111864        -0.945439
 H         0.184137        -1.227832         0.282004
 H         4.169044         0.386501         0.385878
 H         2.260391        -1.336222        -0.642553
 H         3.223604        -0.126519        -2.951471
 H         1.386485         0.310875        -2.866659
 H         3.471803         2.423584        -1.917080
 H         1.570695         2.501891        -2.397475
 H         2.268686         2.658788         1.336960
