19
Iteration:  4980charge 0 multiplicity 1
 C        -0.013721         0.055252        -0.051070
 C         1.378540         0.333962        -0.036760
 O         2.159648         0.113855         1.211540
 C         3.154290         0.625426         0.125725
 C         2.524004        -0.232189        -0.937063
 C         2.505669         0.421623        -2.356736
 C         2.268944         1.853369        -1.908587
 C         2.233461         1.699396        -0.280536
 O         2.202200         2.832777         0.475601
 H        -0.713801         0.775985         0.419118
 H        -0.291765        -0.027855        -1.057573
 H        -0.146590        -0.837105         0.525109
 H         4.246520         0.948859         0.338075
 H         2.706687        -1.362762        -0.880204
 H         3.369316         0.284281        -3.054349
 H         1.735873        -0.102842        -2.930929
 H         3.045550         2.591307        -2.168572
 H         1.289638         2.307660        -2.328429
 H         2.241667         2.339968         1.358825
