19
Iteration:  4385charge 0 multiplicity 1
 C        -0.040398         0.265656         0.123131
 C         1.448964         0.325360        -0.161985
 O         2.269461         0.198343         1.260982
 C         3.154432         0.498917         0.130649
 C         2.606722        -0.338197        -1.007100
 C         2.589101         0.453244        -2.299742
 C         2.246659         1.839929        -1.837076
 C         2.254498         1.625646        -0.379982
 O         1.941147         2.738549         0.395250
 H        -0.340988         1.227811         0.702809
 H        -0.598030         0.195955        -0.802150
 H        -0.204469        -0.735979         0.697551
 H         4.193562         0.686543         0.367698
 H         2.610964        -1.395854        -1.019943
 H         3.613254         0.574125        -2.848121
 H         2.061278         0.206042        -3.228779
 H         2.968272         2.542418        -2.189460
 H         1.351558         2.379407        -2.409572
 H         1.740434         2.419813         1.287671
