19
Iteration:  3452charge 0 multiplicity 1
 C         0.031513        -0.000268         0.050086
 C         1.390287         0.415902        -0.077597
 O         2.200717         0.260983         1.244263
 C         3.164279         0.482824         0.137598
 C         2.501646        -0.309813        -0.968062
 C         2.440294         0.400396        -2.349412
 C         2.440051         1.892097        -1.843358
 C         2.245096         1.681117        -0.378909
 O         2.029463         2.856025         0.373218
 H        -0.315159         0.522912         0.906249
 H        -0.498837         0.418377        -0.809919
 H        -0.164883        -1.119699         0.322179
 H         4.189297         0.745865         0.537376
 H         2.780504        -1.390957        -0.932360
 H         3.315675         0.140901        -3.040273
 H         1.534642        -0.003783        -2.813944
 H         3.340691         2.346838        -2.063734
 H         1.522860         2.493421        -2.186376
 H         1.938189         2.377875         1.224431
