19
Iteration:  3616
 C        -0.050460        -0.107655         0.072498
 C         1.371686         0.356902         0.007896
 O         2.152043         0.134931         1.142915
 C         3.199267         0.593722         0.110213
 C         2.529562        -0.334707        -0.940550
 C         2.449896         0.488217        -2.288553
 C         2.439641         1.965624        -1.903531
 C         2.201801         1.721496        -0.371586
 O         2.151913         2.873735         0.390716
 H        -0.583805         0.507811         0.746136
 H        -0.622592         0.032573        -0.871682
 H        -0.204619        -1.154538         0.499444
 H         4.281637         0.615906         0.450833
 H         2.556599        -1.428677        -0.942529
 H         3.390546         0.365174        -2.845515
 H         1.616255         0.103008        -2.873714
 H         3.422567         2.354208        -1.996637
 H         1.587085         2.580072        -2.398806
 H         1.883469         2.830023         1.324311
