19
Iteration:  2550
 C        -0.110964        -0.022020        -0.038487
 C         1.399706         0.261256        -0.025946
 O         2.248662         0.153221         1.207693
 C         3.185262         0.611749         0.122308
 C         2.485478        -0.346150        -0.963757
 C         2.425078         0.450675        -2.241018
 C         2.423037         1.902748        -1.848355
 C         2.206201         1.699341        -0.315261
 O         2.185437         2.981766         0.384613
 H        -0.850802         0.392980         0.599876
 H        -0.554415        -0.009704        -1.045654
 H        -0.213702        -1.165103         0.203445
 H         4.236255         0.666629         0.447432
 H         2.609608        -1.400272        -1.061678
 H         3.234810         0.225583        -3.020690
 H         1.467072         0.125272        -2.676139
 H         3.382470         2.259169        -2.083399
 H         1.737130         2.397097        -2.489504
 H         1.733339         2.810198         1.249869
