19
Iteration:  2415charge 0 multiplicity 1
 C        -0.129747         0.140139        -0.003586
 C         1.399406         0.327090        -0.038344
 O         2.278214         0.135980         1.214211
 C         3.237557         0.613231         0.138594
 C         2.424298        -0.340163        -0.957096
 C         2.646556         0.448055        -2.319121
 C         2.233224         1.840821        -1.862621
 C         2.221917         1.626421        -0.347553
 O         2.087604         2.839610         0.406187
 H        -0.487905         1.008532         0.577855
 H        -0.512647         0.349682        -1.037016
 H        -0.405772        -0.850154         0.340739
 H         4.313777         0.625557         0.258929
 H         2.629114        -1.467772        -0.864885
 H         3.631089         0.246835        -2.655456
 H         1.901308         0.125113        -3.155096
 H         2.851135         2.767741        -2.048622
 H         1.240208         2.066920        -2.104821
 H         2.473994         2.791823         1.309893
