19
Iteration:  1761
 C        -0.076571         0.307437         0.033816
 C         1.492763         0.281465        -0.075207
 O         2.268184         0.104086         1.210520
 C         3.234812         0.556591         0.089068
 C         2.608307        -0.364425        -0.950308
 C         2.483737         0.400408        -2.287694
 C         2.298885         1.914496        -1.852508
 C         2.272667         1.669915        -0.378107
 O         1.888701         2.757369         0.396628
 H        -0.146723         1.109053         0.830578
 H        -0.600180         0.772416        -0.868841
 H        -0.445768        -0.651177         0.307073
 H         4.297045         0.626183         0.555257
 H         3.021095        -1.364457        -0.851518
 H         3.373602         0.325348        -2.983529
 H         1.619056         0.111753        -2.828370
 H         3.062891         2.655152        -2.023773
 H         1.305623         2.130853        -2.227361
 H         2.111060         2.446622         1.294285
