19
Iteration:   879
 C        -0.031776         0.200295         0.016658
 C         1.429848         0.419295        -0.049610
 O         2.285039         0.098568         1.146341
 C         3.290637         0.542567         0.093912
 C         2.459345        -0.246647        -0.901815
 C         2.566180         0.372703        -2.325757
 C         2.298387         1.827131        -1.894613
 C         2.189920         1.720174        -0.368479
 O         1.957027         2.779052         0.479843
 H        -0.473457         0.977077         0.690329
 H        -0.404044         0.295333        -0.952541
 H        -0.250318        -0.783694         0.406630
 H         4.330315         0.460548         0.384686
 H         2.429154        -1.284371        -0.897769
 H         3.532419         0.103889        -2.805454
 H         1.776571        -0.018002        -3.022782
 H         3.034981         2.593734        -1.863547
 H         1.488312         2.338406        -2.292471
 H         2.116957         2.392508         1.358980
