19
Iteration:  4021charge 0 multiplicity 1
 C        -0.087137         0.257641        -0.045726
 C         1.472924         0.329429        -0.043525
 O         2.293519         0.094981         1.189516
 C         3.292616         0.497360         0.089463
 C         2.632100        -0.357952        -0.909287
 C         2.526806         0.481879        -2.328922
 C         2.215955         1.905174        -1.809188
 C         2.235199         1.664946        -0.333412
 O         1.970013         2.767724         0.447624
 H        -0.504694         1.152000         0.568806
 H        -0.456597         0.550662        -1.063832
 H        -0.586671        -0.571293         0.334029
 H         4.406844         0.463322         0.256714
 H         2.680141        -1.484488        -0.957560
 H         3.377682         0.462065        -3.045614
 H         1.708320        -0.020144        -2.853851
 H         2.947914         2.623171        -2.156933
 H         1.244708         2.417587        -2.008292
 H         1.398680         2.398987         1.173492
