19
Iteration:   985
 C        -0.052113         0.190433         0.000620
 C         1.408054         0.282705        -0.131152
 O         2.284824         0.213682         1.275962
 C         3.189220         0.564740         0.118382
 C         2.526155        -0.307527        -0.948245
 C         2.581218         0.432447        -2.305540
 C         2.278526         1.894199        -1.840463
 C         2.205025         1.644787        -0.366860
 O         2.051757         2.728545         0.398071
 H        -0.467311         0.949192         0.754930
 H        -0.600339         0.360467        -0.870422
 H        -0.397026        -0.877525         0.312035
 H         4.199702         0.653425         0.324037
 H         2.694912        -1.365379        -0.977984
 H         3.384566         0.381651        -3.020075
 H         1.612516         0.094647        -2.793715
 H         3.043834         2.710585        -2.020719
 H         1.227139         2.193077        -2.287837
 H         2.174524         2.543354         1.345287
