19
Iteration:   795
 C        -0.047676         0.041217         0.051083
 C         1.360446         0.399550        -0.081621
 O         2.306627         0.021682         1.144382
 C         3.144608         0.566727         0.116223
 C         2.462960        -0.225862        -0.951664
 C         2.552231         0.404013        -2.278641
 C         2.397157         1.821371        -1.913413
 C         2.183086         1.741088        -0.247247
 O         2.005018         2.912744         0.435486
 H        -0.538425         0.706561         0.767556
 H        -0.692366         0.211225        -0.916292
 H        -0.246377        -0.974037         0.302724
 H         4.273698         0.531513         0.331312
 H         2.505586        -1.305384        -1.049909
 H         3.533485         0.157662        -2.817280
 H         1.790769         0.091823        -2.891410
 H         3.310737         2.432519        -1.991059
 H         1.485759         2.293678        -2.393811
 H         2.837783         3.069776         0.916767
