19
Iteration:  4681charge 0 multiplicity 1
 C        -0.044399         0.013735        -0.087093
 C         1.364241         0.442199        -0.012826
 O         2.324314         0.168158         1.231596
 C         3.214212         0.537273         0.156199
 C         2.369793        -0.296117        -0.939270
 C         2.534076         0.402973        -2.282478
 C         2.280010         1.851073        -1.846473
 C         2.274514         1.661090        -0.298696
 O         2.088580         2.896505         0.352088
 H        -0.625829         0.419204         0.718221
 H        -0.370818         0.556938        -1.016394
 H        -0.111119        -1.139508        -0.197319
 H         4.249797         0.561366         0.516150
 H         2.386934        -1.378079        -1.019448
 H         3.474365         0.337529        -2.903277
 H         1.831893         0.004600        -3.050421
 H         3.124963         2.476678        -2.013138
 H         1.266863         2.378056        -2.059422
 H         2.145748         2.550405         1.286928
