19
Iteration:  2404charge 0 multiplicity 1
 C        -0.111264         0.124737        -0.056060
 C         1.383609         0.268941         0.014946
 O         2.313076         0.201319         1.288078
 C         3.192686         0.531195         0.066684
 C         2.467769        -0.302446        -1.004267
 C         2.536727         0.387248        -2.308376
 C         2.360848         1.915750        -1.862210
 C         2.174082         1.682647        -0.307132
 O         2.064269         2.854345         0.414116
 H        -0.655200         0.658482         0.756507
 H        -0.607642         0.111073        -1.055405
 H        -0.424322        -0.850655         0.354333
 H         4.204273         0.734509         0.400965
 H         2.624761        -1.435201        -1.245080
 H         3.520141         0.227281        -2.659786
 H         1.835931        -0.085232        -3.149759
 H         3.175488         2.695903        -2.163081
 H         1.479998         2.266009        -2.301464
 H         2.640505         2.637359         1.180583
