19
Iteration:  3814charge 0 multiplicity 1
 C        -0.118989        -0.000788         0.109549
 C         1.316119         0.292302        -0.082660
 O         2.298706         0.139932         1.169846
 C         3.149230         0.514802         0.147784
 C         2.491453        -0.272687        -0.942351
 C         2.562922         0.557644        -2.308698
 C         2.398267         1.976736        -1.889501
 C         2.222352         1.648258        -0.407570
 O         2.065978         2.787815         0.411169
 H        -0.692690         0.804171         0.702463
 H        -0.647957        -0.032501        -0.891930
 H        -0.250236        -0.931400         0.538294
 H         4.247833         0.598840         0.342449
 H         2.598023        -1.381892        -0.901536
 H         3.525471         0.461142        -2.865936
 H         1.856069         0.156703        -2.959395
 H         3.192126         2.666893        -1.870174
 H         1.645693         2.667327        -2.397811
 H         2.319243         2.691457         1.356277
