19
Iteration:  2488charge 0 multiplicity 1
 C        -0.103461         0.213435         0.080339
 C         1.413646         0.313886        -0.066092
 O         2.311534         0.096285         1.169104
 C         3.276600         0.512583         0.010462
 C         2.492570        -0.334468        -0.887373
 C         2.581664         0.438173        -2.266713
 C         2.422849         1.882139        -1.876551
 C         2.138680         1.719158        -0.372247
 O         1.909478         2.803656         0.400942
 H        -0.320328         0.965849         0.903528
 H        -0.560457         0.485223        -0.863464
 H        -0.365598        -0.755852         0.362193
 H         4.370229         0.646517         0.217375
 H         2.371960        -1.393034        -0.611000
 H         3.506053         0.275543        -2.864920
 H         1.747781         0.076733        -2.838073
 H         3.329201         2.547133        -1.911011
 H         1.633789         2.461404        -2.454933
 H         1.964060         2.491336         1.343430
