19
Iteration:  4663charge 0 multiplicity 1
 C        -0.006490         0.023586        -0.137683
 C         1.426378         0.344504         0.002512
 O         2.243839         0.170562         1.246376
 C         3.199620         0.543289         0.096227
 C         2.523811        -0.326438        -0.846263
 C         2.399934         0.412594        -2.203341
 C         2.318965         1.991888        -1.873859
 C         2.160587         1.703014        -0.378543
 O         2.156113         2.841626         0.382720
 H        -0.694319         0.402579         0.631547
 H        -0.553174         0.324268        -1.096656
 H        -0.287325        -0.976526        -0.182318
 H         4.297420         0.615944         0.212934
 H         2.595356        -1.455678        -0.720224
 H         3.307476         0.145093        -2.765274
 H         1.599069         0.171618        -2.879192
 H         3.190144         2.575450        -2.203658
 H         1.469851         2.283901        -2.432926
 H         2.291961         2.557681         1.338015
