19
Iteration:  3572
 C        -0.025344         0.091787        -0.141513
 C         1.459567         0.383891        -0.007364
 O         2.288952         0.163690         1.168979
 C         3.243709         0.548272         0.066493
 C         2.463070        -0.307400        -0.879594
 C         2.376045         0.383041        -2.238171
 C         2.374351         1.857978        -1.886721
 C         2.209658         1.739576        -0.391183
 O         2.007194         2.849847         0.526170
 H        -0.797637         0.686552         0.222570
 H        -0.177334        -0.116931        -1.205331
 H        -0.082832        -0.890355         0.451041
 H         4.340037         0.625071         0.389744
 H         2.819917        -1.312042        -0.646705
 H         3.275342         0.202881        -2.819727
 H         1.443062         0.209467        -2.728607
 H         3.269671         2.370470        -2.099720
 H         1.490660         2.420350        -2.402578
 H         2.350876         2.371356         1.326825
