19
Iteration:   374charge 0 multiplicity 1
 C        -0.016870         0.008026         0.022871
 C         1.362667         0.394842        -0.013312
 O         2.268224         0.219524         1.213387
 C         3.170687         0.555058         0.102914
 C         2.450875        -0.295200        -0.940174
 C         2.485787         0.389503        -2.286678
 C         2.361130         1.862210        -1.958199
 C         2.311307         1.798428        -0.371244
 O         2.097442         2.835011         0.476341
 H        -0.805482         0.487133         0.590480
 H        -0.372901         0.100536        -1.120120
 H         0.013158        -1.061318         0.247185
 H         4.206413         0.303828         0.345892
 H         2.473047        -1.460940        -0.844154
 H         3.268199         0.059756        -2.880538
 H         1.479855         0.188456        -2.869026
 H         3.017777         2.605925        -2.241003
 H         1.410909         2.302357        -2.251141
 H         1.845010         2.202974         1.188075
