19
Iteration:   707
 C        -0.091307         0.196010        -0.041155
 C         1.410672         0.346666        -0.040593
 O         2.345623         0.127946         1.255683
 C         3.153956         0.559706         0.049284
 C         2.542276        -0.388156        -0.978238
 C         2.537659         0.401420        -2.297717
 C         2.308880         1.880148        -1.815862
 C         2.237219         1.662447        -0.381495
 O         1.992657         2.859901         0.449721
 H        -0.515995         1.006428         0.619245
 H        -0.445025         0.357650        -1.103304
 H        -0.324952        -0.796484         0.343183
 H         4.246709         0.575528         0.304124
 H         2.691321        -1.411810        -0.984212
 H         3.495992         0.237151        -2.881760
 H         1.729716         0.110004        -2.835853
 H         3.051853         2.678481        -2.038896
 H         1.280554         2.081920        -2.161115
 H         2.073068         2.599318         1.393622
