19
Iteration:  4049
 C         0.015906         0.341867        -0.014761
 C         1.477482         0.353640        -0.090293
 O         2.313970         0.068354         1.173493
 C         3.214291         0.578557         0.146479
 C         2.544340        -0.370155        -0.954236
 C         2.596364         0.447663        -2.330177
 C         2.189402         1.825009        -1.876342
 C         2.177649         1.689717        -0.365407
 O         1.933833         2.728162         0.511522
 H        -0.231653         1.027361         0.767638
 H        -0.459659         0.859458        -0.856989
 H        -0.487408        -0.701868         0.164004
 H         4.253688         0.758270         0.442486
 H         2.554825        -1.438589        -0.928870
 H         3.567308         0.435332        -2.814196
 H         1.810807        -0.027568        -2.972511
 H         3.039242         2.540742        -2.194023
 H         1.221884         2.248831        -2.282210
 H         2.067166         2.294060         1.402655
