19
Iteration:  3246
 C        -0.043772        -0.094747        -0.106454
 C         1.449181         0.339756         0.033138
 O         2.190916         0.265117         1.281936
 C         3.233004         0.550852         0.039019
 C         2.523987        -0.403427        -0.871415
 C         2.382632         0.433591        -2.285916
 C         2.279877         1.882742        -1.848242
 C         2.232060         1.769009        -0.336399
 O         2.158011         2.910747         0.374701
 H        -0.718641         0.462965         0.476792
 H        -0.313359         0.188015        -1.147124
 H        -0.369665        -1.209790        -0.164123
 H         4.300997         0.657551         0.257580
 H         2.819704        -1.510964        -0.903055
 H         3.378192         0.212297        -2.638698
 H         1.496710         0.084015        -2.801591
 H         3.169845         2.454714        -2.225663
 H         1.319768         2.484847        -2.233292
 H         2.535767         2.780513         1.265101
