19
Iteration:  4083
 C        -0.099148         0.068892         0.103036
 C         1.403086         0.370220        -0.020563
 O         2.277616         0.150972         1.129839
 C         3.195992         0.534105         0.087052
 C         2.392351        -0.346629        -1.032483
 C         2.641146         0.484291        -2.307533
 C         2.360788         1.850237        -1.817323
 C         2.304376         1.671124        -0.339058
 O         1.969865         2.863563         0.428375
 H        -0.404364         0.533503         1.024505
 H        -0.613765         0.460156        -0.813269
 H        -0.336792        -1.050665         0.191795
 H         4.274891         0.558341         0.347913
 H         2.356842        -1.418378        -1.028004
 H         3.609671         0.370577        -2.758862
 H         1.914440         0.314367        -3.180159
 H         3.210608         2.555136        -2.225662
 H         1.399115         2.312673        -2.089007
 H         2.131369         2.688667         1.390371
