19
Iteration:  2508charge 0 multiplicity 1
 C        -0.034385         0.119056         0.091657
 C         1.418314         0.380428        -0.065441
 O         2.243438         0.181745         1.197999
 C         3.203526         0.571599         0.180108
 C         2.438875        -0.329897        -1.074032
 C         2.427916         0.351781        -2.375309
 C         2.497673         1.863136        -1.874907
 C         2.304361         1.708699        -0.306684
 O         1.893025         2.815997         0.450403
 H        -0.519436         0.637444         0.917402
 H        -0.428941         0.255720        -0.908528
 H        -0.036216        -0.995522         0.156660
 H         4.290882         0.706235         0.491019
 H         2.777441        -1.344637        -1.084526
 H         3.368447        -0.037384        -2.911578
 H         1.606226         0.189667        -2.977059
 H         3.439262         2.315385        -2.029759
 H         1.784129         2.544846        -2.353006
 H         2.335025         2.931203         1.292047
