19
Iteration:  4487charge 0 multiplicity 1
 C        -0.012781        -0.020479        -0.145813
 C         1.431550         0.395966        -0.088717
 O         2.309631         0.171206         1.215025
 C         3.204514         0.641745         0.191671
 C         2.452502        -0.279476        -0.890123
 C         2.430805         0.332789        -2.304832
 C         2.326135         1.820062        -1.896555
 C         2.211511         1.683674        -0.275631
 O         2.113033         2.912720         0.455823
 H        -0.552143         0.521825         0.573279
 H        -0.540427         0.324253        -1.108357
 H        -0.338986        -1.039091        -0.067664
 H         4.293053         0.745300         0.446534
 H         2.392865        -1.393981        -0.926638
 H         3.187483         0.318383        -3.074944
 H         1.451998        -0.032559        -2.636138
 H         3.190109         2.377275        -2.240316
 H         1.405784         2.378624        -2.298914
 H         2.110836         2.713546         1.395469
