19
Iteration:  3291charge 0 multiplicity 1
 C        -0.004154         0.117355         0.041533
 C         1.457991         0.337477        -0.014090
 O         2.215825         0.101749         1.174169
 C         3.289431         0.573678         0.088633
 C         2.526217        -0.221678        -0.942203
 C         2.453006         0.280208        -2.297183
 C         2.410472         1.876192        -1.894681
 C         2.271385         1.689103        -0.364361
 O         1.920216         2.941374         0.403545
 H        -0.348979         0.606765         0.970060
 H        -0.651317         0.440598        -0.824490
 H        -0.380632        -0.918588         0.175640
 H         4.345811         0.461955         0.295030
 H         2.557618        -1.358876        -0.791470
 H         3.382771         0.082868        -2.794352
 H         1.458403        -0.068284        -2.633097
 H         3.422164         2.376990        -2.146319
 H         1.460037         2.392111        -2.317044
 H         1.613247         2.615608         1.277248
