19
Iteration:  1678charge 0 multiplicity 1
 C        -0.034193        -0.019263         0.097890
 C         1.422830         0.382221        -0.050544
 O         2.122365         0.165279         1.207618
 C         3.144417         0.531026         0.109658
 C         2.490308        -0.242913        -0.957370
 C         2.545050         0.423279        -2.339746
 C         2.305677         1.924835        -1.853241
 C         2.243570         1.682064        -0.374078
 O         2.174257         2.837941         0.380030
 H        -0.581162         0.623297         0.733947
 H        -0.496656        -0.075490        -0.921820
 H        -0.107226        -1.038036         0.603739
 H         4.153865         0.630881         0.410159
 H         2.519674        -1.360478        -0.741942
 H         3.498753         0.430583        -2.891091
 H         1.724618         0.047479        -3.009610
 H         3.081695         2.689766        -2.153607
 H         1.436106         2.237182        -2.452799
 H         2.496713         2.734849         1.298736
