19
Iteration:  1166charge 0 multiplicity 1
 C         0.000415         0.228912         0.049267
 C         1.473999         0.384955        -0.082839
 O         2.298299         0.056283         1.148095
 C         3.153878         0.592534         0.098046
 C         2.562410        -0.277848        -0.938969
 C         2.510918         0.336654        -2.233197
 C         2.240767         1.818910        -1.930644
 C         2.232791         1.700395        -0.346374
 O         1.970895         2.844145         0.452263
 H        -0.431360         1.005783         0.653490
 H        -0.508376         0.307588        -1.035463
 H        -0.382561        -0.771669         0.340758
 H         4.283834         0.616215         0.427912
 H         2.561267        -1.375242        -0.733539
 H         3.473752         0.243025        -2.588147
 H         1.776228        -0.005960        -2.933223
 H         3.057960         2.453010        -2.335285
 H         1.353563         2.298761        -2.236537
 H         2.292041         2.549668         1.319888
