19
Iteration:  4502charge 0 multiplicity 1
 C        -0.124588         0.050553        -0.143004
 C         1.408431         0.376818        -0.000391
 O         2.285172         0.201291         1.202515
 C         3.218670         0.604079         0.013405
 C         2.557785        -0.343353        -0.912391
 C         2.423237         0.347602        -2.256976
 C         2.303907         1.830878        -1.774116
 C         2.207806         1.724519        -0.335923
 O         2.092761         2.888673         0.447674
 H        -0.797707         0.558405         0.632730
 H        -0.360414         0.283368        -1.145549
 H        -0.002295        -1.010014        -0.056484
 H         4.285548         0.726941         0.218897
 H         2.886633        -1.380385        -0.659258
 H         3.330578         0.007035        -2.721051
 H         1.619905         0.028669        -2.931942
 H         3.209732         2.541179        -2.063964
 H         1.545058         2.379838        -2.233511
 H         2.177304         2.482324         1.343162
