19
Iteration:  3931charge 0 multiplicity 1
 C        -0.070240        -0.077035         0.079435
 C         1.349477         0.416005        -0.062506
 O         2.193224         0.132395         1.126586
 C         3.238808         0.520145         0.075254
 C         2.486078        -0.288821        -1.037249
 C         2.492177         0.438402        -2.298207
 C         2.442599         1.909081        -1.823920
 C         2.253640         1.737064        -0.364039
 O         2.096654         2.924321         0.526601
 H        -0.705756         0.478736         0.779484
 H        -0.576630        -0.042558        -0.945759
 H         0.059737        -1.101593         0.448853
 H         4.307588         0.312187         0.376063
 H         2.455358        -1.377283        -1.133998
 H         3.428128         0.334424        -2.853812
 H         1.682235         0.047955        -3.023897
 H         3.274348         2.694084        -2.026525
 H         1.592631         2.397272        -2.209774
 H         1.423517         2.642303         1.185008
