19
Iteration:  3006
 C        -0.029824         0.258874         0.138910
 C         1.500315         0.404372        -0.034845
 O         2.306732         0.098902         1.176107
 C         3.227136         0.591586         0.119182
 C         2.478819        -0.287673        -0.961140
 C         2.597844         0.316817        -2.451795
 C         2.400724         1.827160        -1.890648
 C         2.186705         1.702881        -0.338237
 O         1.782188         2.769695         0.445040
 H        -0.302713         1.102868         0.681671
 H        -0.355055         0.231798        -0.879761
 H        -0.221763        -0.742503         0.700879
 H         4.288235         0.524988         0.339935
 H         2.524319        -1.310091        -0.648518
 H         3.541812         0.273854        -2.993311
 H         1.822161        -0.049062        -3.230801
 H         3.316133         2.357404        -2.006798
 H         1.699903         2.409533        -2.428944
 H         1.802031         2.676046         1.419027
