19
Iteration:  2327
 C        -0.063452         0.091387         0.084329
 C         1.384694         0.365880        -0.054909
 O         2.296757         0.080835         1.200894
 C         3.159753         0.566194         0.066502
 C         2.485576        -0.315310        -0.987208
 C         2.511032         0.445311        -2.241714
 C         2.427698         1.929726        -1.807402
 C         2.251786         1.651670        -0.311029
 O         1.979045         2.841382         0.309014
 H        -0.652666         0.866684         0.696484
 H        -0.602783         0.354782        -0.870734
 H        -0.332039        -0.928062         0.374893
 H         4.236539         0.736846         0.168632
 H         2.599855        -1.459855        -1.051433
 H         3.407400         0.284139        -2.784342
 H         1.666740         0.062390        -2.961725
 H         3.413692         2.477518        -1.957030
 H         1.650558         2.539498        -2.137325
 H         2.199749         2.633038         1.250003
