19
Iteration:  1196charge 0 multiplicity 1
 C        -0.056564         0.387593         0.178119
 C         1.477172         0.295794        -0.009744
 O         2.341087         0.206923         1.168111
 C         3.202544         0.470116         0.083012
 C         2.565829        -0.396746        -1.016700
 C         2.694443         0.435309        -2.308906
 C         2.224171         1.837824        -1.833818
 C         2.185654         1.612663        -0.354672
 O         1.891467         2.731857         0.348919
 H        -0.323045         1.269262         0.717733
 H        -0.454652         0.526857        -0.872681
 H        -0.643190        -0.411772         0.447194
 H         4.272578         0.614910         0.317922
 H         2.562661        -1.556021        -1.109931
 H         3.743782         0.394891        -2.668670
 H         1.953424         0.225829        -3.218686
 H         2.842180         2.817167        -2.064762
 H         1.133764         2.093442        -2.014814
 H         1.563514         2.429419         1.215462
