19
Iteration:  3395
 C        -0.047474         0.062643        -0.071142
 C         1.407802         0.267467        -0.015373
 O         2.271579         0.214720         1.280299
 C         3.243877         0.564893         0.090311
 C         2.475970        -0.373771        -0.949839
 C         2.480132         0.386996        -2.264341
 C         2.248595         1.927213        -1.825576
 C         2.225872         1.682765        -0.297077
 O         2.121847         2.891662         0.348036
 H        -0.678714         0.922000         0.189413
 H        -0.330107         0.041995        -1.105826
 H        -0.457720        -0.949274         0.346079
 H         4.272567         0.795045         0.544130
 H         2.763026        -1.455744        -1.053232
 H         3.294626         0.231513        -3.005458
 H         1.693776        -0.028534        -2.906669
 H         3.138545         2.537499        -2.121671
 H         1.420856         2.368190        -2.384071
 H         2.060576         2.762589         1.317336
