19
Iteration:  1544
 C        -0.186622         0.248641         0.239252
 C         1.384347         0.382759         0.011837
 O         2.330078         0.174806         1.158890
 C         3.221471         0.473190         0.072374
 C         2.534871        -0.351938        -1.021128
 C         2.732486         0.415043        -2.353728
 C         2.311568         1.813155        -1.843551
 C         2.190022         1.631016        -0.391494
 O         1.922034         2.816108         0.368723
 H        -0.563486         1.056722         0.816401
 H        -0.774729         0.471488        -0.723809
 H        -0.557486        -0.661841         0.614177
 H         4.317856         0.547120         0.203945
 H         2.655744        -1.408400        -0.999657
 H         3.767191         0.571415        -2.735774
 H         2.203430         0.102977        -3.201262
 H         3.048064         2.573983        -2.041192
 H         1.429579         2.211485        -2.358913
 H         2.066852         2.477164         1.289610
