19
Iteration:  4342charge 0 multiplicity 1
 C        -0.021691         0.102198        -0.137159
 C         1.396791         0.441522        -0.119406
 O         2.381641         0.072957         1.245603
 C         3.222582         0.607772         0.120578
 C         2.466555        -0.308086        -0.945374
 C         2.464882         0.374896        -2.287963
 C         2.306854         1.796311        -1.819129
 C         2.180074         1.670852        -0.312854
 O         2.025755         2.951131         0.475256
 H        -0.622548         0.833698         0.431221
 H        -0.660980         0.007597        -0.965836
 H        -0.363736        -0.826247         0.422414
 H         4.301245         0.711328         0.202535
 H         2.670384        -1.343437        -0.963167
 H         3.476683         0.081176        -2.798548
 H         1.769850        -0.228686        -2.884017
 H         3.073830         2.361478        -2.234443
 H         1.328860         2.453004        -2.156479
 H         2.205244         2.488608         1.302808
