19
Iteration:  2128
 C        -0.058366         0.189699         0.003574
 C         1.329204         0.347356        -0.079483
 O         2.351810         0.099566         1.257210
 C         3.249881         0.545675         0.105997
 C         2.427603        -0.343272        -0.927865
 C         2.668050         0.463298        -2.382048
 C         2.186181         1.903641        -1.859224
 C         2.213818         1.657082        -0.312307
 O         2.077140         2.787949         0.403669
 H        -0.462821         0.981295         0.739285
 H        -0.540607         0.304774        -0.916215
 H        -0.370221        -0.826530         0.248460
 H         4.328512         0.752174         0.292101
 H         2.322687        -1.446630        -0.854559
 H         3.656416         0.388390        -2.690756
 H         1.962032         0.189748        -3.231114
 H         2.794395         2.794733        -2.087567
 H         1.200944         2.176562        -2.125559
 H         1.941514         2.462239         1.339251
