19
Iteration:  3099charge 0 multiplicity 1
 C        -0.050487        -0.037693        -0.073646
 C         1.418587         0.314665        -0.023904
 O         2.257019         0.239559         1.263944
 C         3.204662         0.605693         0.129187
 C         2.514015        -0.370282        -0.911988
 C         2.435221         0.420503        -2.293533
 C         2.265823         1.899803        -1.883832
 C         2.279528         1.713111        -0.306266
 O         2.108932         2.892457         0.374636
 H        -0.609356         0.445989         0.820613
 H        -0.445367         0.291648        -1.069428
 H        -0.202374        -1.081057        -0.035910
 H         4.267117         0.577577         0.442930
 H         2.569133        -1.465578        -0.866240
 H         3.350346         0.168788        -2.878995
 H         1.669618         0.117408        -3.004120
 H         3.047735         2.493240        -2.406145
 H         1.305215         2.272381        -2.288017
 H         2.273342         2.669182         1.311446
