19
Iteration:  2948
 C        -0.000820         0.138986         0.041202
 C         1.477964         0.303284        -0.085213
 O         2.227277         0.150033         1.202882
 C         3.176195         0.585931         0.184364
 C         2.528368        -0.339959        -0.993276
 C         2.513251         0.363251        -2.300226
 C         2.293204         1.842831        -1.877549
 C         2.260310         1.774681        -0.314032
 O         1.980163         2.874312         0.404007
 H        -0.370994         0.971965         0.670595
 H        -0.422434         0.226879        -0.963473
 H        -0.241086        -0.823878         0.383840
 H         4.277348         0.569364         0.428377
 H         2.594194        -1.422466        -1.085058
 H         3.409709         0.292992        -2.939520
 H         1.746540        -0.136676        -2.851589
 H         3.132533         2.331131        -2.289983
 H         1.345274         2.304620        -2.323850
 H         2.112121         2.416649         1.270439
