19
Iteration:  3693charge 0 multiplicity 1
 C        -0.024898         0.375477         0.053482
 C         1.456224         0.334372        -0.077233
 O         2.286401         0.120891         1.162840
 C         3.282227         0.531450         0.099362
 C         2.555493        -0.328913        -0.993866
 C         2.636960         0.416264        -2.351055
 C         2.187323         1.814888        -1.813596
 C         2.297048         1.619943        -0.345687
 O         1.879053         2.732592         0.481722
 H        -0.343748         0.957815         0.926917
 H        -0.489540         0.921530        -0.836441
 H        -0.542472        -0.565596         0.133757
 H         4.331149         0.845307         0.401148
 H         2.572972        -1.429924        -1.029271
 H         3.688083         0.329789        -2.670694
 H         2.011142        -0.005219        -3.099470
 H         2.776789         2.658768        -2.164996
 H         1.152597         2.195911        -2.225609
 H         1.401741         2.408560         1.265751
