19
Iteration:  1234
 C        -0.087667         0.231611         0.205464
 C         1.372268         0.430973        -0.029377
 O         2.287780         0.084148         1.098198
 C         3.177183         0.604598         0.143148
 C         2.531142        -0.319537        -0.999533
 C         2.680943         0.341197        -2.372313
 C         2.333092         1.805208        -1.887156
 C         2.229509         1.703926        -0.404325
 O         1.912046         2.827683         0.458284
 H        -0.497319         0.985262         0.961168
 H        -0.568813         0.354603        -0.763174
 H        -0.207478        -0.874315         0.626260
 H         4.320628         0.620104         0.370059
 H         2.598361        -1.371775        -0.946106
 H         3.646899         0.310863        -2.884193
 H         1.877858        -0.073759        -2.865639
 H         2.966421         2.472313        -2.384047
 H         1.356982         2.029307        -2.319302
 H         2.353560         2.527130         1.297271
