19
Iteration:   108charge 0 multiplicity 1
 C         0.025866         0.269782         0.061452
 C         1.439580         0.382727        -0.013467
 O         2.327266         0.102513         1.216387
 C         3.174767         0.486760         0.018085
 C         2.523219        -0.331580        -0.951479
 C         2.627892         0.375252        -2.290425
 C         2.300501         1.851218        -1.864350
 C         2.096099         1.673081        -0.384799
 O         1.901213         2.852279         0.407823
 H        -0.579875         1.055853         0.691540
 H        -0.438378         0.315514        -0.881834
 H        -0.324929        -0.756741         0.413032
 H         4.257797         0.510133         0.214235
 H         2.605881        -1.391521        -0.836384
 H         3.657385         0.242491        -2.762624
 H         1.898072         0.007876        -2.973672
 H         3.314035         2.416686        -1.849893
 H         1.615016         2.429438        -2.368730
 H         1.965726         2.549280         1.335482
