19
Iteration:  4636
 C        -0.054553         0.097824        -0.080645
 C         1.463097         0.323971        -0.125739
 O         2.227391         0.207146         1.185542
 C         3.211564         0.682663         0.235873
 C         2.530289        -0.274138        -0.973657
 C         2.385991         0.336020        -2.380110
 C         2.363960         1.811137        -1.838673
 C         2.277383         1.694489        -0.285898
 O         2.102752         2.847715         0.488267
 H        -0.649400         0.665956         0.674203
 H        -0.764194         0.005641        -0.889882
 H        -0.195902        -0.999678         0.324576
 H         4.242054         0.850542         0.550050
 H         2.569845        -1.329648        -0.892329
 H         3.223585        -0.008577        -3.083237
 H         1.512266         0.139731        -3.060915
 H         3.262261         2.326408        -2.216440
 H         1.357845         2.184904        -2.286578
 H         1.920100         2.375621         1.358792
