19
Iteration:  3324
 C        -0.149654         0.299977         0.231662
 C         1.395191         0.327674        -0.050893
 O         2.327814         0.148478         1.172334
 C         3.216497         0.577670         0.076197
 C         2.519556        -0.304493        -0.975340
 C         2.710568         0.422282        -2.241212
 C         2.358220         1.915368        -1.881300
 C         2.195662         1.558575        -0.444787
 O         1.883406         2.692604         0.320281
 H        -0.361326         1.133740         0.908524
 H        -0.901322         0.541194        -0.574500
 H        -0.432811        -0.681681         0.601541
 H         4.252825         0.860304         0.102878
 H         2.561244        -1.426950        -0.957655
 H         3.718232         0.157680        -2.591998
 H         2.071705        -0.040610        -3.027361
 H         3.119431         2.754680        -1.976032
 H         1.440223         2.455445        -2.285994
 H         2.083989         2.359961         1.210557
