19
Iteration:  2464charge 0 multiplicity 1
 C        -0.069983         0.311729         0.117530
 C         1.407119         0.306473         0.005507
 O         2.289517         0.108970         1.158271
 C         3.126417         0.549059         0.129975
 C         2.557352        -0.327595        -1.016211
 C         2.651808         0.420395        -2.388152
 C         2.271189         1.819803        -1.852153
 C         2.248167         1.662529        -0.359983
 O         2.008884         2.771724         0.414421
 H        -0.331076         1.137136         0.767354
 H        -0.433950         0.511548        -0.877278
 H        -0.467386        -0.632498         0.509231
 H         4.180874         0.605794         0.486624
 H         2.667547        -1.369570        -0.874092
 H         3.743275         0.529894        -2.711636
 H         2.142397        -0.066234        -3.126858
 H         2.843458         2.649008        -2.163301
 H         1.225375         2.160165        -1.907213
 H         1.240934         2.611068         0.963289
