19
Iteration:  1029charge 0 multiplicity 1
 C        -0.025919         0.379845         0.025892
 C         1.475962         0.413828        -0.060486
 O         2.358325         0.053660         1.183324
 C         3.297928         0.485363         0.139154
 C         2.477351        -0.290355        -0.944441
 C         2.675243         0.376845        -2.320267
 C         2.225185         1.851147        -1.922057
 C         2.210219         1.664548        -0.372623
 O         1.812748         2.745248         0.471822
 H        -0.069263         1.284733         0.688685
 H        -0.458860         0.568785        -0.884543
 H        -0.400866        -0.564523         0.539166
 H         4.318362         0.505506         0.165670
 H         2.450760        -1.335338        -0.795661
 H         3.688849         0.125912        -2.685761
 H         1.918565         0.083095        -3.114811
 H         2.724249         2.756383        -2.367843
 H         1.063549         1.998137        -2.084805
 H         1.882521         2.357540         1.385641
