19
Iteration:  2572
 C        -0.010073         0.015547        -0.028578
 C         1.395774         0.425207        -0.023971
 O         2.272044         0.093331         1.183538
 C         3.140133         0.578032         0.124482
 C         2.402345        -0.217511        -0.908934
 C         2.505623         0.338851        -2.363388
 C         2.288885         1.931677        -1.826316
 C         2.270870         1.695154        -0.283863
 O         2.196646         2.858262         0.397846
 H        -0.787349         0.525552         0.466823
 H        -0.391816         0.050904        -1.076958
 H        -0.332617        -1.046905         0.339267
 H         4.218670         0.564184         0.383707
 H         2.625539        -1.217987        -0.634171
 H         3.588912         0.086001        -2.682542
 H         1.842376        -0.079194        -3.136265
 H         3.034697         2.640808        -2.090536
 H         1.321696         2.276822        -2.136326
 H         1.353778         2.917991         0.864570
