19
Iteration:   840
 C        -0.040872         0.370433        -0.025184
 C         1.458429         0.296146        -0.077959
 O         2.321748         0.158873         1.199439
 C         3.303297         0.503198         0.172792
 C         2.558597        -0.269836        -0.958021
 C         2.579982         0.421994        -2.303487
 C         2.147547         1.883258        -1.809645
 C         2.149141         1.561509        -0.377995
 O         1.989866         2.720739         0.413781
 H        -0.239821         1.156659         0.683790
 H        -0.609714         0.698108        -1.014689
 H        -0.611457        -0.496957         0.303490
 H         4.409038         0.512643         0.472257
 H         2.691413        -1.395438        -0.781659
 H         3.605553         0.517240        -2.760504
 H         1.966353        -0.026477        -3.030703
 H         2.897999         2.615702        -2.213891
 H         1.129989         2.030638        -2.316757
 H         1.790739         2.251692         1.272255
