19
Iteration:  4229charge 0 multiplicity 1
 C        -0.127816         0.240389         0.112494
 C         1.404335         0.339818        -0.031717
 O         2.260083         0.134438         1.236251
 C         3.315113         0.526785         0.132412
 C         2.531914        -0.333745        -1.094902
 C         2.625785         0.459450        -2.358013
 C         2.254861         1.857249        -1.843242
 C         2.245240         1.596386        -0.326260
 O         1.923249         2.809336         0.400124
 H        -0.313025         1.051618         0.960165
 H        -0.458773         0.528493        -0.890603
 H        -0.468549        -0.656144         0.515959
 H         4.400813         0.412171         0.295759
 H         2.788227        -1.449009        -1.206205
 H         3.691899         0.417358        -2.690524
 H         1.986256         0.131938        -3.208034
 H         3.035228         2.603144        -2.299678
 H         1.240625         2.074696        -2.255330
 H         2.051754         2.688784         1.378799
