19
Iteration:  2823
 C        -0.081806         0.341997         0.088162
 C         1.444780         0.340375        -0.079876
 O         2.429644         0.131584         1.221113
 C         3.271543         0.562314         0.095378
 C         2.513466        -0.334727        -0.982575
 C         2.552934         0.357789        -2.299436
 C         2.424500         1.901000        -1.837048
 C         2.161412         1.633242        -0.341146
 O         1.760829         2.715307         0.339539
 H        -0.493588         1.116887         0.683566
 H        -0.488482         0.464273        -0.920978
 H        -0.437583        -0.573838         0.659561
 H         4.306142         0.342267         0.320502
 H         2.597054        -1.439403        -0.874826
 H         3.369917         0.160338        -2.956293
 H         1.624416         0.346427        -2.882744
 H         3.303428         2.711631        -1.919483
 H         1.567525         2.495775        -2.155742
 H         2.046643         2.338358         1.220882
