19
Iteration:  1227charge 0 multiplicity 1
 C        -0.073511         0.276367         0.215101
 C         1.432177         0.404478        -0.048323
 O         2.285472         0.054462         1.106480
 C         3.229948         0.585131         0.120604
 C         2.517564        -0.324011        -0.943290
 C         2.696139         0.331872        -2.328767
 C         2.309097         1.845489        -1.955731
 C         2.185286         1.734183        -0.401239
 O         1.903141         2.766671         0.437001
 H        -0.425333         1.057757         0.940113
 H        -0.620530         0.440832        -0.697553
 H        -0.360378        -0.665632         0.648678
 H         4.226635         0.793380         0.337653
 H         2.473153        -1.441796        -0.858577
 H         3.740190         0.180071        -2.819875
 H         1.987876         0.018713        -3.198373
 H         2.932303         2.725626        -2.276744
 H         1.221555         2.096936        -2.175164
 H         2.131915         2.551777         1.369349
