19
Iteration:  4297
 C         0.000760        -0.007211        -0.002327
 C         1.441042         0.331439        -0.130745
 O         2.131085         0.242810         1.235835
 C         3.238185         0.580516         0.130159
 C         2.507885        -0.314386        -0.943833
 C         2.402867         0.433574        -2.309580
 C         2.404024         1.949870        -1.849043
 C         2.237609         1.705361        -0.330038
 O         2.099972         2.779051         0.381801
 H        -0.416932         0.451816         0.942349
 H        -0.693544         0.062496        -0.788779
 H        -0.118659        -1.085461         0.361116
 H         4.294327         0.653014         0.388758
 H         2.682751        -1.387568        -0.875719
 H         3.262179         0.202458        -3.030375
 H         1.458368         0.110810        -2.762607
 H         3.308556         2.536462        -1.980179
 H         1.519178         2.528767        -2.373024
 H         2.103971         2.576178         1.328180
