19
Iteration:  1474
 C         0.018168        -0.055677        -0.097821
 C         1.381233         0.334807         0.011640
 O         2.251981         0.215247         1.269034
 C         3.177904         0.627719         0.112134
 C         2.522381        -0.243129        -0.864270
 C         2.350307         0.440860        -2.263961
 C         2.312120         1.840295        -1.882079
 C         2.176365         1.728380        -0.381791
 O         2.203234         2.823218         0.351073
 H        -0.688284         0.565808         0.484061
 H        -0.313396         0.050344        -1.051380
 H        -0.110924        -1.127190         0.179669
 H         4.277389         0.722480         0.575072
 H         2.378497        -1.360927        -0.890089
 H         3.138925         0.089555        -2.941854
 H         1.367047         0.146629        -2.766051
 H         3.287756         2.325881        -2.095576
 H         1.653220         2.556415        -2.391940
 H         2.353869         2.486824         1.243261
