19
Iteration:  3302
 C        -0.000024         0.186156         0.143335
 C         1.461936         0.346665        -0.051861
 O         2.250181         0.160048         1.180951
 C         3.244463         0.516349         0.134566
 C         2.468160        -0.335569        -0.952001
 C         2.580087         0.399797        -2.364943
 C         2.352026         1.810896        -1.880494
 C         2.244270         1.691699        -0.335555
 O         1.859387         2.866771         0.364628
 H        -0.281487         0.858104         0.956149
 H        -0.510463         0.664353        -0.741277
 H        -0.263627        -0.861510         0.318570
 H         4.316649         0.457650         0.285900
 H         2.795692        -1.412108        -0.899136
 H         3.381164         0.030777        -2.984069
 H         1.742902         0.066168        -3.035714
 H         3.304566         2.427752        -1.980916
 H         1.639038         2.528174        -2.402044
 H         1.791566         2.563641         1.305353
