19
Iteration:  4811charge 0 multiplicity 1
 C        -0.092697         0.042230        -0.076249
 C         1.364424         0.318834        -0.160532
 O         2.229288         0.120317         1.234962
 C         3.243300         0.589930         0.165132
 C         2.613410        -0.322310        -0.914699
 C         2.451087         0.375400        -2.229665
 C         2.256182         1.953444        -1.881723
 C         2.274134         1.708605        -0.324683
 O         2.139649         2.876188         0.396845
 H        -0.734582         0.800220         0.400166
 H        -0.766176        -0.084097        -0.963138
 H        -0.406935        -0.886995         0.573670
 H         4.273637         0.571621         0.492600
 H         2.825859        -1.358978        -0.870535
 H         3.234757         0.455728        -3.003461
 H         1.430584         0.066218        -2.574385
 H         3.202128         2.565289        -2.156653
 H         1.291435         2.435301        -2.399744
 H         2.320960         2.642416         1.331501
