19
Iteration:  1878
 C         0.029520         0.134607         0.098885
 C         1.418669         0.425560        -0.054979
 O         2.268378         0.049259         1.206578
 C         3.214404         0.526133         0.044497
 C         2.396580        -0.317757        -0.968159
 C         2.527488         0.431264        -2.329952
 C         2.393316         1.931363        -1.834438
 C         2.285188         1.717347        -0.333869
 O         1.912747         2.803219         0.395672
 H        -0.562829         0.871800         0.752156
 H        -0.526175         0.152582        -0.818184
 H        -0.184332        -0.849341         0.471858
 H         4.230256         0.678414         0.134621
 H         2.495618        -1.395560        -0.909213
 H         3.511609         0.128400        -2.595204
 H         1.853399         0.248506        -3.248002
 H         3.406839         2.425775        -2.021094
 H         1.591441         2.463509        -2.334550
 H         1.986156         2.595516         1.337651
