19
Iteration:  4462
 C        -0.002048         0.054635        -0.026555
 C         1.455561         0.338339         0.002935
 O         2.151491         0.148563         1.204796
 C         3.229981         0.548874         0.113328
 C         2.522996        -0.302295        -0.868054
 C         2.437237         0.408947        -2.269707
 C         2.353343         1.910269        -1.872012
 C         2.305518         1.657327        -0.360790
 O         2.052582         2.890810         0.347185
 H        -0.656943         0.487152         0.792263
 H        -0.602182         0.199928        -0.919290
 H        -0.124206        -1.093448         0.104953
 H         4.268888         0.588931         0.408852
 H         2.883990        -1.263888        -1.020813
 H         3.288635         0.497334        -3.035708
 H         1.491306         0.124152        -2.747218
 H         3.128276         2.527968        -2.231684
 H         1.371855         2.437896        -2.232794
 H         1.942201         2.616473         1.291649
