19
Iteration:  2517charge 0 multiplicity 1
 C        -0.032840         0.058490         0.048969
 C         1.461126         0.361482        -0.079540
 O         2.157076         0.173400         1.207718
 C         3.283127         0.643126         0.173479
 C         2.426628        -0.308355        -0.999659
 C         2.383087         0.438045        -2.390333
 C         2.504757         1.829040        -1.881438
 C         2.323184         1.695473        -0.288426
 O         1.946352         2.794370         0.417084
 H        -0.561449         0.469857         0.857978
 H        -0.646154         0.234715        -0.870421
 H         0.062530        -1.110083         0.331552
 H         4.295574         0.820792         0.585605
 H         2.428913        -1.368540        -0.866477
 H         3.252366         0.197940        -3.104668
 H         1.483554         0.136931        -2.923003
 H         3.471040         2.171267        -2.050693
 H         1.832810         2.517671        -2.303825
 H         2.416352         2.982547         1.219959
