19
Iteration:  2877
 C        -0.093742        -0.058604         0.044400
 C         1.391262         0.425132        -0.056997
 O         2.155427         0.171414         1.156045
 C         3.195244         0.593210         0.104302
 C         2.545709        -0.264186        -0.926777
 C         2.522656         0.384561        -2.224245
 C         2.261051         1.869453        -1.924565
 C         2.302543         1.712638        -0.323344
 O         2.145906         2.860996         0.380087
 H        -0.503174         0.515452         0.846742
 H        -0.622693         0.171881        -0.891391
 H        -0.129082        -1.209032         0.150782
 H         4.160897         0.637922         0.555027
 H         2.661241        -1.354360        -0.852308
 H         3.419816         0.373043        -2.807042
 H         1.705147         0.048419        -2.916091
 H         3.217430         2.438754        -2.275166
 H         1.347694         2.369164        -2.165775
 H         2.310123         2.692361         1.331244
