19
Iteration:  2146charge 0 multiplicity 1
 C        -0.108153         0.084575         0.068254
 C         1.388541         0.404529         0.040719
 O         2.304526         0.105540         1.120106
 C         3.191388         0.571867         0.046033
 C         2.433754        -0.288721        -1.027349
 C         2.556810         0.404438        -2.272021
 C         2.345901         1.852810        -1.875612
 C         2.197623         1.740861        -0.344007
 O         2.091721         2.838666         0.495509
 H        -0.809842         0.636859         0.706223
 H        -0.404431         0.188460        -1.022188
 H        -0.325944        -1.030787         0.280447
 H         4.315847         0.555286         0.092273
 H         2.681421        -1.297361        -0.942008
 H         3.698422         0.295725        -2.572516
 H         1.980841        -0.074189        -3.026287
 H         3.163699         2.509041        -2.099734
 H         1.429759         2.332156        -2.420607
 H         1.747374         2.679730         1.395113
