19
Iteration:  2670
 C        -0.000431         0.164369         0.085654
 C         1.419419         0.395861        -0.067017
 O         2.293210         0.107615         1.171056
 C         3.288719         0.569084         0.162676
 C         2.473362        -0.283874        -0.928735
 C         2.434916         0.391333        -2.364605
 C         2.490967         1.894993        -1.866950
 C         2.210035         1.636479        -0.288965
 O         1.875726         2.761041         0.340978
 H        -0.335127         0.810053         0.816776
 H        -0.530618         0.510398        -0.787390
 H        -0.471284        -0.855884         0.214199
 H         4.363404         0.681612         0.329354
 H         2.360143        -1.328451        -0.772922
 H         3.348908         0.271580        -2.970393
 H         1.583759         0.194834        -3.026521
 H         3.411131         2.449837        -2.020757
 H         1.707137         2.545419        -2.210190
 H         1.940535         2.739933         1.318290
