19
Iteration:  2921
 C        -0.159690        -0.043344        -0.057955
 C         1.366136         0.425876         0.015197
 O         2.254629         0.125761         1.182270
 C         3.266541         0.617573         0.123190
 C         2.478109        -0.287959        -0.919896
 C         2.564068         0.401031        -2.257271
 C         2.205758         1.847299        -1.821425
 C         2.207630         1.724246        -0.292252
 O         2.236822         2.924518         0.325042
 H        -0.920843         0.344308         0.632853
 H        -0.534706        -0.000591        -1.105064
 H        -0.042578        -1.184529         0.179803
 H         4.309940         0.816487         0.312983
 H         2.391203        -1.400673        -0.969284
 H         3.580658         0.320143        -2.646915
 H         1.888229        -0.173257        -2.953435
 H         3.061856         2.601275        -2.100258
 H         1.283006         2.213855        -2.244674
 H         1.870419         2.594600         1.173864
