19
Iteration:  1695
 C        -0.138815         0.082606         0.136675
 C         1.308194         0.396152         0.023146
 O         2.309585         0.155892         1.185758
 C         3.182071         0.569452         0.088579
 C         2.508541        -0.401166        -1.018895
 C         2.626739         0.463237        -2.388078
 C         2.350842         1.872196        -1.846092
 C         2.155168         1.654181        -0.359430
 O         2.088773         2.878497         0.386906
 H        -0.752154         0.786537         0.814570
 H        -0.614370         0.118897        -0.861353
 H        -0.304493        -0.876785         0.576577
 H         4.331578         0.651905         0.458068
 H         2.716822        -1.428830        -1.145843
 H         3.670930         0.221359        -2.719290
 H         1.922622         0.118442        -3.101117
 H         3.247331         2.453610        -1.995903
 H         1.458099         2.424607        -2.246701
 H         1.923680         2.486863         1.294794
