19
Iteration:  4258charge 0 multiplicity 1
 C        -0.097359         0.077150         0.129326
 C         1.404012         0.410657        -0.037682
 O         2.269388         0.042482         1.146283
 C         3.247024         0.610912         0.007971
 C         2.428511        -0.293257        -0.895556
 C         2.612246         0.416444        -2.275178
 C         2.369365         1.958098        -1.851255
 C         2.156411         1.661428        -0.381777
 O         1.999374         2.824738         0.391719
 H        -0.334925         0.813780         0.838935
 H        -0.494973         0.549619        -0.831889
 H        -0.264283        -0.989222         0.416564
 H         4.357170         0.517162        -0.022639
 H         2.605114        -1.347442        -0.694151
 H         3.636657         0.287508        -2.529854
 H         1.896040         0.068219        -3.048970
 H         3.327859         2.448723        -2.094972
 H         1.548790         2.308580        -2.418393
 H         1.860761         2.513088         1.295088
