19
Iteration:  2939charge 0 multiplicity 1
 C         0.015582         0.058224        -0.011163
 C         1.402295         0.355747        -0.073344
 O         2.234185         0.104135         1.175195
 C         3.183629         0.595895         0.139427
 C         2.493010        -0.322407        -0.909761
 C         2.533349         0.355499        -2.282216
 C         2.291622         1.880152        -1.879549
 C         2.267176         1.741287        -0.374095
 O         2.058489         2.912424         0.422020
 H        -0.490952         0.742716         0.642291
 H        -0.473769         0.234905        -0.965203
 H        -0.305732        -0.910162         0.470577
 H         4.245468         0.499503         0.426833
 H         2.715138        -1.324865        -0.651765
 H         3.480690         0.197991        -2.830776
 H         1.635690        -0.017804        -2.893616
 H         2.924857         2.570790        -2.369870
 H         1.271554         2.150261        -2.208454
 H         1.963836         2.765741         1.381135
