19
Iteration:  4607
 C        -0.081101         0.201657         0.108448
 C         1.431887         0.353760         0.038195
 O         2.257124         0.154221         1.129791
 C         3.259148         0.479170         0.057850
 C         2.500036        -0.308493        -0.972265
 C         2.573318         0.414870        -2.237384
 C         2.387202         1.920202        -1.847515
 C         2.215286         1.679821        -0.358702
 O         1.912922         2.806787         0.361332
 H        -0.635014         1.050669         0.545929
 H        -0.419691        -0.027349        -1.005317
 H        -0.193037        -0.698200         0.732828
 H         4.352122         0.365802         0.248577
 H         2.503213        -1.442077        -1.021389
 H         3.587791         0.317012        -2.758203
 H         1.746518         0.227838        -2.949284
 H         3.290618         2.434307        -2.017311
 H         1.508374         2.327420        -2.459364
 H         1.991376         2.322776         1.231814
