19
Iteration:   419charge 0 multiplicity 1
 C        -0.070743        -0.028402         0.018083
 C         1.386477         0.250951        -0.010452
 O         2.258260         0.100171         1.242825
 C         3.153962         0.598508         0.071395
 C         2.480796        -0.251062        -0.938958
 C         2.427300         0.437164        -2.281955
 C         2.475786         1.861147        -1.935012
 C         2.167347         1.726926        -0.290588
 O         2.120660         2.936711         0.376767
 H        -0.473670         0.746618         0.651382
 H        -0.530974         0.288182        -1.005535
 H        -0.330470        -1.044749         0.386405
 H         4.233913         0.729606         0.248535
 H         2.854385        -1.311053        -0.841523
 H         3.181543         0.213338        -3.040543
 H         1.424956         0.236713        -2.804572
 H         3.329014         2.483269        -2.074498
 H         1.660164         2.437304        -2.449329
 H         2.223867         2.631441         1.298972
