19
Iteration:  4063charge 0 multiplicity 1
 C        -0.039527         0.253059         0.054763
 C         1.420542         0.408577        -0.084669
 O         2.299441         0.082125         1.179231
 C         3.270302         0.406998         0.103696
 C         2.545350        -0.247578        -0.929570
 C         2.598806         0.359548        -2.273094
 C         2.258243         1.974894        -1.942414
 C         2.127401         1.687195        -0.417737
 O         1.913685         2.772216         0.524160
 H        -0.447576         0.644938         0.978564
 H        -0.468365         0.621834        -0.905131
 H        -0.262597        -0.747858         0.115637
 H         4.390857         0.335228         0.265663
 H         2.596870        -1.343706        -0.791279
 H         3.596565         0.322627        -2.680382
 H         2.008156        -0.043027        -3.141178
 H         3.065505         2.769029        -2.232260
 H         1.337442         2.307424        -2.374655
 H         2.478711         2.492923         1.252409
