19
Iteration:  4114
 C        -0.084099        -0.052639         0.121896
 C         1.354496         0.334764         0.006260
 O         2.192976         0.048118         1.097928
 C         3.170669         0.540711         0.138497
 C         2.554837        -0.263058        -0.974721
 C         2.565913         0.495864        -2.259500
 C         2.394640         1.940506        -1.926048
 C         2.141845         1.699120        -0.380119
 O         2.179625         2.910114         0.406036
 H        -0.548706         0.499429         0.944890
 H        -0.755734         0.176648        -0.749110
 H        -0.158159        -1.217809         0.567756
 H         4.179999         0.656560         0.527994
 H         2.485689        -1.320926        -0.958097
 H         3.292741         0.403279        -3.085317
 H         1.575883         0.308867        -2.762653
 H         3.432617         2.394594        -2.035429
 H         1.711849         2.653784        -2.488108
 H         1.534845         2.912650         1.125635
