19
Iteration:  2399
 C        -0.102357         0.082580        -0.031211
 C         1.380169         0.283641         0.012390
 O         2.319028         0.216196         1.275942
 C         3.149211         0.502465         0.056102
 C         2.499540        -0.305973        -0.988375
 C         2.485802         0.381693        -2.309958
 C         2.392095         1.937005        -1.842449
 C         2.181557         1.701543        -0.335424
 O         2.055185         2.851386         0.422492
 H        -0.744258         0.703160         0.652135
 H        -0.507374         0.192609        -1.031965
 H        -0.301126        -0.964628         0.271355
 H         4.194554         0.701242         0.388784
 H         2.584503        -1.339555        -1.085658
 H         3.531364         0.287977        -2.771739
 H         1.822579        -0.018263        -3.002815
 H         3.321963         2.422841        -2.178395
 H         1.563216         2.469106        -2.478340
 H         2.597982         2.615162         1.205720
