19
Iteration:  4438
 C        -0.062406         0.107793         0.081840
 C         1.407125         0.331558        -0.091403
 O         2.323559         0.170084         1.152241
 C         3.183315         0.545221         0.165029
 C         2.493995        -0.301481        -0.952029
 C         2.562184         0.326957        -2.355677
 C         2.369684         1.920324        -1.799861
 C         2.163951         1.645095        -0.366735
 O         1.996080         2.876035         0.380531
 H        -0.580889         0.776609         0.871288
 H        -0.667057         0.261651        -0.781847
 H        -0.372645        -0.939597         0.363095
 H         4.197978         0.737367         0.467730
 H         2.603550        -1.376869        -0.910973
 H         3.591122         0.307834        -2.759449
 H         1.824485         0.226498        -3.157484
 H         3.236825         2.631170        -1.874399
 H         1.563429         2.388015        -2.345200
 H         1.961972         2.486882         1.294947
