19
Iteration:  4157charge 0 multiplicity 1
 C        -0.019328         0.036267        -0.017753
 C         1.443678         0.423600        -0.043204
 O         2.280129         0.161263         1.196462
 C         3.220269         0.482658         0.102073
 C         2.472778        -0.328365        -0.929767
 C         2.410391         0.519110        -2.265101
 C         2.384654         1.922217        -1.806496
 C         2.164457         1.673999        -0.399078
 O         2.044169         2.805625         0.413352
 H        -0.692520         0.701511         0.459714
 H        -0.121272        -0.001857        -1.123851
 H        -0.226972        -1.015979         0.477176
 H         4.249059         0.633054         0.398549
 H         2.395957        -1.392888        -1.045544
 H         3.318816         0.212053        -2.827201
 H         1.611248         0.124829        -2.903964
 H         3.237688         2.522437        -1.939709
 H         1.563468         2.441930        -2.374102
 H         2.437300         2.696843         1.306200
