19
Iteration:  1709charge 0 multiplicity 1
 C        -0.189652         0.169065         0.179689
 C         1.408852         0.292384        -0.047181
 O         2.366106         0.122407         1.139412
 C         3.195665         0.528597         0.030211
 C         2.459509        -0.265878        -0.981026
 C         2.629233         0.384785        -2.272185
 C         2.391894         1.892756        -1.859991
 C         2.186816         1.689089        -0.332696
 O         1.978196         2.814496         0.387947
 H        -0.431883         0.981315         0.758132
 H        -0.676135         0.345872        -0.831206
 H        -0.472489        -0.835801         0.509604
 H         4.389869         0.720137         0.110581
 H         2.504107        -1.385972        -0.796708
 H         3.688518         0.367879        -2.706026
 H         2.014930         0.082771        -3.112872
 H         3.305288         2.577921        -1.933847
 H         1.471003         2.371623        -2.421876
 H         1.597483         2.633145         1.252940
