19
Iteration:  3111
 C        -0.060885         0.050939        -0.004142
 C         1.446141         0.305561         0.029119
 O         2.248176         0.217341         1.191728
 C         3.290756         0.622789         0.158979
 C         2.514612        -0.284942        -0.880066
 C         2.465536         0.429046        -2.393913
 C         2.331742         1.817309        -1.831673
 C         2.190686         1.640961        -0.408397
 O         2.063829         2.829862         0.366409
 H        -0.630269         0.654599         0.774165
 H        -0.419974         0.492338        -0.949259
 H        -0.355967        -1.006319         0.070986
 H         4.351506         0.816732         0.466295
 H         2.675773        -1.340146        -0.787987
 H         3.314150         0.265042        -3.106592
 H         1.533326         0.097695        -2.749162
 H         3.128175         2.565594        -1.930293
 H         1.358137         2.363594        -2.140491
 H         1.801309         2.499398         1.251569
