19
Iteration:  2411charge 0 multiplicity 1
 C        -0.135402         0.133744        -0.036306
 C         1.394350         0.305210        -0.016088
 O         2.288597         0.157221         1.247683
 C         3.239393         0.603189         0.121803
 C         2.422459        -0.343225        -0.981432
 C         2.609507         0.434305        -2.323161
 C         2.291654         1.857896        -1.879807
 C         2.195726         1.633796        -0.334766
 O         2.084575         2.846016         0.413766
 H        -0.489164         0.944556         0.698953
 H        -0.561337         0.235694        -1.023559
 H        -0.429689        -0.836805         0.345735
 H         4.350814         0.658208         0.288614
 H         2.641898        -1.388812        -1.027098
 H         3.648673         0.167543        -2.648602
 H         1.933872         0.088785        -3.088101
 H         2.871187         2.792849        -2.006213
 H         1.198954         2.128724        -2.116971
 H         2.537326         2.800278         1.262462
