19
Iteration:  2364
 C        -0.024479         0.003154         0.051826
 C         1.444222         0.422418        -0.112752
 O         2.179207         0.138387         1.208648
 C         3.164095         0.558515         0.148669
 C         2.543727        -0.280663        -1.016762
 C         2.309362         0.381980        -2.287848
 C         2.537989         1.911688        -1.869054
 C         2.335300         1.737948        -0.368059
 O         2.014899         2.854696         0.452978
 H        -0.373769         0.598587         0.825375
 H        -0.544001         0.029523        -0.923323
 H         0.085639        -1.110723         0.382586
 H         4.211818         0.686216         0.455365
 H         2.569687        -1.366809        -0.928511
 H         3.094355         0.030956        -3.053088
 H         1.362727         0.116116        -2.615303
 H         3.503860         2.066226        -2.253735
 H         1.754438         2.668852        -2.333667
 H         1.394367         2.720985         1.177057
