19
Iteration:  4249charge 0 multiplicity 1
 C        -0.034329         0.165328         0.121189
 C         1.356733         0.337267        -0.057505
 O         2.346933         0.078297         1.159847
 C         3.189492         0.538015         0.033918
 C         2.441437        -0.332004        -0.906834
 C         2.653030         0.450799        -2.263481
 C         2.328050         1.915777        -1.827939
 C         2.157746         1.675667        -0.397107
 O         1.981046         2.806346         0.341049
 H        -0.412611         0.812667         0.976690
 H        -0.526475         0.407630        -0.885885
 H        -0.462296        -0.752614         0.376670
 H         4.296210         0.649317         0.177362
 H         2.404396        -1.435871        -0.709755
 H         3.643456         0.389022        -2.636727
 H         2.025699         0.245484        -3.158035
 H         3.168374         2.734640        -1.865777
 H         1.483888         2.443316        -2.102049
 H         1.911867         2.479278         1.250055
