19
Iteration:   679
 C        -0.009076         0.344821        -0.010522
 C         1.472389         0.343136         0.010216
 O         2.277308         0.062948         1.200435
 C         3.253599         0.552250         0.151433
 C         2.549878        -0.287167        -1.016505
 C         2.552224         0.449348        -2.258305
 C         2.155990         1.820234        -1.862218
 C         2.259260         1.632681        -0.386337
 O         1.910996         2.728921         0.411345
 H        -0.278811         1.231209         0.506521
 H        -0.383387         0.539974        -1.059496
 H        -0.402145        -0.570405         0.422976
 H         4.260114         0.422821         0.570436
 H         2.619870        -1.516255        -1.046686
 H         3.591781         0.498285        -2.530472
 H         2.039740        -0.139968        -3.216647
 H         2.877872         2.640812        -2.076311
 H         1.142714         2.207888        -2.121245
 H         2.588509         2.886439         1.100872
