19
Iteration:  1576
 C         0.043614         0.317973         0.188780
 C         1.442809         0.405959        -0.050609
 O         2.241998         0.080142         1.165809
 C         3.174826         0.578790         0.137375
 C         2.551846        -0.365050        -0.947451
 C         2.610583         0.338997        -2.338656
 C         2.302461         1.857059        -1.938111
 C         2.183072         1.681377        -0.453573
 O         1.905404         2.749038         0.415910
 H        -0.220202         1.042399         0.923630
 H        -0.460257         0.682953        -0.730809
 H        -0.350928        -0.579935         0.479637
 H         4.278296         0.766379         0.492381
 H         2.676867        -1.404853        -0.870365
 H         3.579394         0.416480        -2.878335
 H         1.906747         0.039869        -3.049873
 H         3.188391         2.438079        -2.046962
 H         1.364589         2.338695        -2.246639
 H         1.849538         2.347504         1.312026
