19
Iteration:  4652
 C        -0.081994        -0.013975        -0.097036
 C         1.383181         0.350067        -0.010184
 O         2.204972         0.212528         1.186859
 C         3.206917         0.616746         0.094379
 C         2.564714        -0.322962        -0.913785
 C         2.415996         0.361108        -2.265281
 C         2.311160         1.884741        -1.869531
 C         2.239108         1.706230        -0.344821
 O         2.154520         2.860416         0.453653
 H        -0.594027         0.637310         0.610648
 H        -0.192686         0.477421        -1.099227
 H        -0.271852        -1.045924        -0.022729
 H         4.241078         0.693530         0.474017
 H         2.868519        -1.410233        -0.859189
 H         3.187040         0.297661        -3.008547
 H         1.481049        -0.068115        -2.660800
 H         3.253996         2.376842        -2.096084
 H         1.514212         2.534153        -2.208454
 H         2.177406         2.503783         1.369614
