19
Iteration:   705charge 0 multiplicity 1
 C        -0.101120         0.214647        -0.050321
 C         1.399516         0.331816        -0.041400
 O         2.349632         0.136245         1.251965
 C         3.175949         0.531229         0.054493
 C         2.546021        -0.398975        -0.974222
 C         2.555235         0.417765        -2.291283
 C         2.298738         1.895615        -1.816501
 C         2.232849         1.650148        -0.374233
 O         1.980670         2.857336         0.436394
 H        -0.518917         1.040627         0.596243
 H        -0.436639         0.368866        -1.027011
 H        -0.338929        -0.807288         0.348374
 H         4.248816         0.609988         0.267251
 H         2.723984        -1.428632        -0.888467
 H         3.474828         0.254913        -2.912141
 H         1.713215         0.120825        -2.833172
 H         2.978341         2.693437        -2.062414
 H         1.285497         2.089979        -2.086842
 H         2.186341         2.595065         1.377113
