19
Iteration:  3463charge 0 multiplicity 1
 C        -0.054880         0.093515         0.174085
 C         1.428306         0.342739        -0.060628
 O         2.216351         0.242981         1.182221
 C         3.163202         0.600899         0.157172
 C         2.528095        -0.330665        -1.014655
 C         2.532024         0.413658        -2.313815
 C         2.383137         1.892608        -1.840485
 C         2.189947         1.654257        -0.379715
 O         2.046592         2.759905         0.339213
 H        -0.520048         0.563257         1.003675
 H        -0.602622         0.352410        -0.744697
 H        -0.165610        -1.061686         0.109294
 H         4.264750         0.632241         0.452625
 H         2.543234        -1.447278        -0.962397
 H         3.520060         0.315638        -2.871634
 H         1.719831         0.126119        -3.004081
 H         3.312759         2.353347        -1.954119
 H         1.725437         2.592764        -2.450298
 H         1.841478         2.668142         1.283186
