19
Iteration:  4615
 C         0.005485         0.182432         0.080778
 C         1.457506         0.373109        -0.056488
 O         2.237059         0.123681         1.168276
 C         3.187826         0.491413         0.096384
 C         2.491656        -0.308087        -0.904882
 C         2.546075         0.427426        -2.271858
 C         2.357734         1.919478        -1.890295
 C         2.267260         1.738113        -0.416408
 O         1.950795         2.799184         0.419847
 H        -0.686600         0.885519         0.517705
 H        -0.457602        -0.055762        -0.906732
 H        -0.270353        -0.813692         0.595281
 H         4.249703         0.527690         0.351716
 H         2.527844        -1.380637        -0.882313
 H         3.389056         0.063580        -2.940010
 H         1.693418        -0.083695        -2.768611
 H         3.297406         2.401145        -2.110084
 H         1.482798         2.529002        -2.359062
 H         1.893043         2.422721         1.314723
