19
Iteration:   414
 C        -0.043395        -0.039101         0.022187
 C         1.414705         0.253430         0.002524
 O         2.223589         0.148093         1.196187
 C         3.136863         0.594124         0.080019
 C         2.498777        -0.287489        -0.921980
 C         2.410795         0.452183        -2.291501
 C         2.453664         1.865500        -1.851484
 C         2.148020         1.727513        -0.363974
 O         2.137522         2.937481         0.393314
 H        -0.540018         0.734777         0.676370
 H        -0.375154         0.214704        -0.963050
 H        -0.320995        -1.047296         0.306594
 H         4.213024         0.639509         0.263853
 H         2.910567        -1.344729        -0.926021
 H         3.129444         0.166345        -3.082833
 H         1.432780         0.292207        -2.754657
 H         3.445318         2.377525        -2.100699
 H         1.658644         2.330438        -2.399185
 H         2.319629         2.620708         1.310891
