19
Iteration:  1664charge 0 multiplicity 1
 C        -0.018406        -0.102288        -0.009218
 C         1.362434         0.365958        -0.135576
 O         2.155546         0.176400         1.116813
 C         3.213306         0.594875         0.183429
 C         2.437201        -0.299915        -0.906144
 C         2.454182         0.409259        -2.199601
 C         2.262120         1.907181        -1.888131
 C         2.311064         1.775490        -0.362661
 O         2.209840         2.899370         0.413066
 H        -0.417640         0.640971         0.612818
 H        -0.667838        -0.106139        -0.915324
 H        -0.006047        -1.034483         0.469317
 H         4.327056         0.472658         0.598517
 H         2.543980        -1.374370        -1.035668
 H         3.417956         0.040888        -2.686720
 H         1.701237        -0.003104        -2.816934
 H         3.103883         2.494429        -2.324636
 H         1.274629         2.434424        -1.976348
 H         2.498726         2.568810         1.277488
