19
Iteration:  3399charge 0 multiplicity 1
 C        -0.038699         0.048240        -0.113217
 C         1.438382         0.264179        -0.033452
 O         2.283532         0.204511         1.328413
 C         3.233227         0.617598         0.083453
 C         2.461156        -0.350958        -0.965617
 C         2.452701         0.394038        -2.279974
 C         2.288149         1.906951        -1.829096
 C         2.161706         1.679062        -0.263639
 O         2.149534         2.894726         0.354200
 H        -0.707470         0.820307         0.246597
 H        -0.315314         0.063812        -1.223307
 H        -0.385843        -0.951071         0.346093
 H         4.280228         0.734893         0.454258
 H         2.693786        -1.465558        -0.793441
 H         3.187896         0.137151        -3.133222
 H         1.589572         0.051807        -2.916746
 H         3.197506         2.365395        -2.044241
 H         1.403767         2.303948        -2.477473
 H         2.058704         2.790637         1.316227
