19
Iteration:  1711
 C        -0.168904         0.196406         0.175067
 C         1.412447         0.276834        -0.058687
 O         2.358237         0.107151         1.132618
 C         3.219647         0.539449         0.029572
 C         2.447844        -0.266142        -0.949674
 C         2.638267         0.393486        -2.263201
 C         2.400197         1.892918        -1.883842
 C         2.177102         1.697487        -0.325965
 O         1.959714         2.806551         0.384997
 H        -0.401397         1.021356         0.791907
 H        -0.657698         0.364177        -0.796645
 H        -0.425135        -0.860978         0.510732
 H         4.316698         0.663100         0.007818
 H         2.492758        -1.398865        -0.754822
 H         3.653567         0.333185        -2.693466
 H         1.965639         0.104880        -3.138296
 H         3.306955         2.577945        -1.946524
 H         1.449968         2.368921        -2.334658
 H         1.579901         2.581079         1.260529
