19
Iteration:  2861charge 0 multiplicity 1
 C        -0.028063         0.103164         0.058666
 C         1.396936         0.374946        -0.112686
 O         2.252484         0.142498         1.186890
 C         3.199046         0.612594         0.194089
 C         2.520759        -0.292970        -0.946987
 C         2.505888         0.334308        -2.395243
 C         2.384530         1.854166        -1.845864
 C         2.190246         1.723596        -0.417146
 O         2.047997         2.872003         0.468019
 H        -0.502687         0.663966         0.924379
 H        -0.667767         0.241066        -0.833218
 H        -0.048102        -0.977121         0.279374
 H         4.316408         0.624493         0.388722
 H         2.663393        -1.374413        -0.806032
 H         3.414516         0.069997        -3.035553
 H         1.589205        -0.075063        -2.885191
 H         3.123711         2.509612        -2.137407
 H         1.401079         2.173065        -2.289495
 H         1.759505         2.545087         1.367132
