19
Iteration:   290charge 0 multiplicity 1
 C        -0.050370         0.277125         0.147484
 C         1.454465         0.424958        -0.091194
 O         2.326467         0.115454         1.099812
 C         3.183723         0.507646         0.115936
 C         2.475094        -0.330773        -0.942272
 C         2.626748         0.365230        -2.291663
 C         2.353492         1.880561        -1.871602
 C         2.267975         1.647363        -0.373129
 O         1.870905         2.768833         0.405194
 H        -0.276549         1.026876         0.864068
 H        -0.487161         0.424284        -0.848686
 H        -0.261137        -0.721571         0.504792
 H         4.223917         0.806416         0.384662
 H         2.361649        -1.389389        -0.896345
 H         3.702622         0.090079        -2.667827
 H         1.902757         0.104285        -3.034087
 H         3.007749         2.790865        -2.127408
 H         1.213044         1.984308        -2.043679
 H         1.609540         2.609019         1.325258
