19
Iteration:  4393
 C        -0.003207         0.276297         0.135621
 C         1.398884         0.365585        -0.148166
 O         2.307986         0.212263         1.135836
 C         3.154061         0.539393         0.138890
 C         2.577829        -0.389395        -1.012830
 C         2.663940         0.434750        -2.335319
 C         2.251117         1.874279        -1.863111
 C         2.224062         1.617920        -0.347523
 O         1.908719         2.751741         0.441407
 H        -0.495650         1.049575         0.843342
 H        -0.759912         0.175878        -0.643010
 H        -0.212404        -0.639677         0.678242
 H         4.189914         0.531568         0.493696
 H         2.590688        -1.492439        -0.811799
 H         3.708340         0.315959        -2.601578
 H         1.926040         0.076356        -3.092768
 H         3.197866         2.446846        -2.168365
 H         1.330190         2.247100        -2.222286
 H         1.744033         2.383538         1.340011
