19
Iteration:   723
 C        -0.010299         0.094974         0.012422
 C         1.427540         0.371864        -0.028609
 O         2.249987         0.121707         1.129970
 C         3.265719         0.606422         0.150995
 C         2.432230        -0.233406        -0.947061
 C         2.478828         0.357257        -2.329581
 C         2.339375         1.840556        -1.918119
 C         2.188802         1.723491        -0.306286
 O         2.073183         2.828796         0.489058
 H        -0.573624         0.772244         0.628352
 H        -0.422015         0.234264        -1.002351
 H        -0.209538        -0.958047         0.304750
 H         4.311411         0.771665         0.366939
 H         2.552706        -1.381865        -0.708964
 H         3.428781         0.179912        -2.784987
 H         1.689475        -0.085384        -3.119723
 H         3.329802         2.248265        -2.180523
 H         1.614271         2.537468        -2.378442
 H         1.529642         2.486063         1.238340
