19
Iteration:  1996
 C        -0.090861        -0.045036         0.077578
 C         1.349960         0.313515        -0.051951
 O         2.156827         0.072756         1.180582
 C         3.174004         0.569698         0.068483
 C         2.532583        -0.268111        -0.966292
 C         2.479078         0.475934        -2.326647
 C         2.367758         1.877680        -1.875391
 C         2.218038         1.728154        -0.331478
 O         2.231368         2.950119         0.452769
 H        -0.663903         0.585225         0.814370
 H        -0.436854        -0.001873        -0.913847
 H        -0.074122        -1.133201         0.383120
 H         4.312897         0.645424         0.160202
 H         2.660860        -1.348802        -0.804892
 H         3.336240         0.249400        -2.909177
 H         1.592260         0.258606        -2.972396
 H         3.314854         2.364438        -2.042865
 H         1.572114         2.430851        -2.355639
 H         1.696335         2.908455         1.247375
