19
Iteration:   965charge 0 multiplicity 1
 C        -0.046765        -0.031411         0.018740
 C         1.392673         0.394776         0.018805
 O         2.232616         0.192369         1.145117
 C         3.250038         0.486641         0.109211
 C         2.444653        -0.327458        -0.905470
 C         2.446909         0.440343        -2.337458
 C         2.367873         1.944030        -1.863089
 C         2.307768         1.718053        -0.369083
 O         2.053919         2.888221         0.405444
 H        -0.784568         0.532390         0.714012
 H        -0.447327         0.137598        -0.948369
 H        -0.205331        -1.137437         0.262212
 H         4.225554         0.519819         0.504377
 H         2.439697        -1.388101        -0.909322
 H         3.370641         0.215491        -2.594166
 H         1.770670        -0.076893        -3.068582
 H         3.313943         2.501074        -2.093467
 H         1.493419         2.513797        -2.202593
 H         2.167725         2.544721         1.334545
