19
Iteration:  1665
 C        -0.006439        -0.100984        -0.002335
 C         1.356104         0.369176        -0.135176
 O         2.150391         0.174444         1.121856
 C         3.217600         0.594152         0.179135
 C         2.436904        -0.291145        -0.911685
 C         2.462872         0.414152        -2.203760
 C         2.259810         1.913242        -1.886777
 C         2.308742         1.774421        -0.357714
 O         2.206683         2.891890         0.406903
 H        -0.392129         0.645414         0.591917
 H        -0.682198        -0.093617        -0.905820
 H        -0.040615        -1.048633         0.496357
 H         4.285558         0.471198         0.598461
 H         2.534711        -1.398277        -1.040935
 H         3.422045         0.018791        -2.668250
 H         1.697116        -0.034178        -2.807943
 H         3.135328         2.481266        -2.314598
 H         1.258277         2.418407        -1.987796
 H         2.526614         2.555919         1.263791
