19
Iteration:  4797charge 0 multiplicity 1
 C        -0.150136         0.114318        -0.023478
 C         1.458392         0.307605        -0.035360
 O         2.248007         0.165172         1.119268
 C         3.232653         0.519199         0.157787
 C         2.619782        -0.315415        -0.941625
 C         2.463180         0.425694        -2.300851
 C         2.310930         1.856048        -1.801874
 C         2.194763         1.708797        -0.369424
 O         2.052719         2.885306         0.430614
 H        -0.550174         1.121520         0.378737
 H        -0.374657        -0.090138        -1.084712
 H        -0.283729        -0.799087         0.699977
 H         4.318162         0.514213         0.534940
 H         2.822450        -1.401900        -0.910104
 H         3.240331         0.093135        -3.005167
 H         1.574605         0.004682        -2.863784
 H         3.230290         2.556984        -2.099529
 H         1.436786         2.324768        -2.173900
 H         2.105291         2.620275         1.371862
