19
Iteration:   565
 C        -0.030061        -0.036188         0.011169
 C         1.439108         0.253331        -0.039468
 O         2.233193         0.164782         1.187578
 C         3.150610         0.588920         0.152497
 C         2.491187        -0.322949        -0.973470
 C         2.369770         0.445103        -2.296234
 C         2.397324         1.881100        -1.837967
 C         2.205009         1.696777        -0.338143
 O         2.150649         2.954879         0.385116
 H        -0.616364         0.711997         0.618808
 H        -0.315377         0.175025        -1.009446
 H        -0.344177        -1.062812         0.278793
 H         4.213215         0.617645         0.461082
 H         2.674619        -1.307640        -1.017581
 H         3.333874         0.219519        -2.921822
 H         1.494495         0.155985        -2.814393
 H         3.448511         2.294911        -1.944161
 H         1.673496         2.518148        -2.404396
 H         1.908198         2.836084         1.320255
