19
Iteration:  2426charge 0 multiplicity 1
 C        -0.041186         0.226969         0.051659
 C         1.403184         0.390155        -0.067115
 O         2.247032         0.074198         1.109455
 C         3.170591         0.523842         0.120408
 C         2.533979        -0.304852        -0.906598
 C         2.664902         0.419406        -2.276303
 C         2.117613         1.832292        -1.801817
 C         2.270125         1.705667        -0.333972
 O         2.085521         2.822063         0.369283
 H        -0.629520         0.943812         0.645409
 H        -0.382436         0.286301        -1.018979
 H        -0.407357        -0.749439         0.391141
 H         4.197571         0.606001         0.446324
 H         2.535470        -1.416996        -0.630850
 H         3.646483         0.633644        -2.606333
 H         2.075873        -0.009155        -3.189666
 H         2.812977         2.510148        -2.369486
 H         1.169296         2.023658        -2.180286
 H         2.119229         2.452485         1.285783
