19
Iteration:  1559
 C        -0.109210         0.339463         0.216906
 C         1.374474         0.197425        -0.112249
 O         2.301931         0.165279         1.141089
 C         3.226696         0.602161         0.017599
 C         2.502497        -0.354081        -0.958547
 C         2.680854         0.427925        -2.263823
 C         2.334927         1.896406        -1.875885
 C         2.174567         1.627156        -0.347895
 O         1.946682         2.749324         0.361319
 H        -0.008976         1.096131         1.044438
 H        -0.644727         0.577910        -0.768160
 H        -0.529697        -0.631500         0.733312
 H         4.258535         0.632867         0.257873
 H         2.788619        -1.465056        -0.930434
 H         3.727790         0.139735        -2.377408
 H         1.959785        -0.018947        -3.053366
 H         3.135218         2.663722        -2.157461
 H         1.352901         2.156429        -2.320871
 H         1.648879         2.517538         1.282041
