19
Iteration:   980charge 0 multiplicity 1
 C        -0.084920         0.127633         0.014984
 C         1.415958         0.319039        -0.091796
 O         2.276291         0.218449         1.284240
 C         3.172390         0.534383         0.135998
 C         2.511112        -0.329995        -0.980257
 C         2.537060         0.446595        -2.240227
 C         2.304479         1.917439        -1.873537
 C         2.229059         1.665779        -0.381990
 O         2.050862         2.748199         0.384732
 H        -0.469109         0.801163         0.730828
 H        -0.601173         0.287785        -1.012170
 H        -0.227815        -0.890483         0.245956
 H         4.335957         0.515376         0.276208
 H         2.792001        -1.417002        -1.029725
 H         3.418152         0.469800        -3.029882
 H         1.679768         0.268926        -2.870548
 H         3.063546         2.594787        -2.229936
 H         1.372630         2.289423        -2.228712
 H         2.265313         2.585256         1.321393
