19
Iteration:    29charge 0 multiplicity 1
 C        -0.115613        -0.132290        -0.044710
 C         1.324988         0.428341        -0.047043
 O         2.345465         0.231438         1.234117
 C         3.156676         0.586122         0.136476
 C         2.442541        -0.275203        -0.880852
 C         2.440705         0.356122        -2.302702
 C         2.384861         1.867833        -1.968368
 C         2.229504         1.764514        -0.361092
 O         2.144539         2.902261         0.474475
 H        -0.917679         0.327865         0.656321
 H        -0.510798        -0.059571        -1.166137
 H        -0.150523        -1.235894         0.160651
 H         4.256791         0.573188         0.348367
 H         2.722473        -1.321019        -0.701465
 H         3.494831         0.138212        -2.726516
 H         1.745504        -0.007263        -3.071416
 H         3.338695         2.443669        -2.305013
 H         1.563265         2.438851        -2.417330
 H         2.140826         2.573359         1.380304
