19
Iteration:   135charge 0 multiplicity 1
 C        -0.117232         0.316155         0.140127
 C         1.426855         0.303797        -0.077951
 O         2.281398         0.206817         1.202716
 C         3.233628         0.561089         0.076674
 C         2.483877        -0.360792        -0.934377
 C         2.677431         0.446263        -2.314061
 C         2.364253         1.909705        -1.896461
 C         2.313830         1.614789        -0.403703
 O         1.870729         2.678622         0.386220
 H        -0.365021         1.040184         0.839272
 H        -0.797108         0.554168        -0.777294
 H        -0.294542        -0.628312         0.572285
 H         4.280647         0.516317         0.376412
 H         2.652148        -1.488139        -0.880524
 H         3.663686         0.216902        -2.655319
 H         1.864621         0.217762        -3.081125
 H         2.874044         2.742830        -2.291211
 H         1.189037         1.967092        -2.050725
 H         1.794930         2.342909         1.307807
