19
Iteration:  1696
 C        -0.149294         0.085685         0.142406
 C         1.314575         0.394708         0.019136
 O         2.323009         0.155132         1.182345
 C         3.178803         0.566629         0.080082
 C         2.505593        -0.390731        -1.023689
 C         2.625076         0.455904        -2.382281
 C         2.351807         1.873430        -1.832363
 C         2.162032         1.650727        -0.362934
 O         2.079287         2.876142         0.388676
 H        -0.719982         0.771746         0.802292
 H        -0.630398         0.147314        -0.874245
 H        -0.370628        -0.846711         0.589611
 H         4.344878         0.660508         0.479867
 H         2.711371        -1.446289        -1.141933
 H         3.701286         0.224624        -2.698551
 H         1.941534         0.093892        -3.088320
 H         3.267419         2.464826        -2.004135
 H         1.463925         2.431093        -2.312245
 H         1.877539         2.508688         1.294476
