19
Iteration:   280charge 0 multiplicity 1
 C        -0.127181         0.214732         0.133509
 C         1.409748         0.345207        -0.012689
 O         2.306343         0.148342         1.184257
 C         3.308499         0.585912         0.087590
 C         2.456150        -0.340104        -0.956644
 C         2.592384         0.399958        -2.329402
 C         2.370205         1.885044        -1.876027
 C         2.256863         1.662182        -0.399296
 O         1.904619         2.759869         0.392601
 H        -0.612238         0.972637         0.761918
 H        -0.624742         0.414030        -0.798791
 H        -0.527180        -0.760376         0.454669
 H         4.364848         0.561807         0.445403
 H         2.456946        -1.389447        -0.895443
 H         3.693545         0.325942        -2.731132
 H         1.975938         0.026569        -3.101403
 H         3.130698         2.689514        -2.216870
 H         1.497311         2.362915        -2.349701
 H         1.955362         2.370364         1.305895
