19
Iteration:  2222
 C        -0.053283         0.110922         0.004753
 C         1.404582         0.371089        -0.076797
 O         2.391017         0.069426         1.145004
 C         3.214891         0.563564         0.115384
 C         2.395014        -0.281347        -0.971512
 C         2.459573         0.382297        -2.258192
 C         2.435995         1.873297        -1.828959
 C         2.215839         1.691848        -0.357476
 O         1.973115         2.901599         0.458124
 H        -0.686720         0.754118         0.566598
 H        -0.459233         0.108201        -1.024740
 H        -0.203011        -0.992292         0.190559
 H         4.293438         0.851477         0.232472
 H         2.487167        -1.318231        -0.798189
 H         3.351495        -0.107200        -2.856181
 H         1.560654         0.086901        -2.720722
 H         3.428088         2.286704        -2.007171
 H         1.650382         2.656405        -2.279621
 H         1.769304         2.742468         1.390958
