19
Iteration:  4630charge 0 multiplicity 1
 C        -0.032586         0.072642        -0.028833
 C         1.420194         0.405624        -0.157730
 O         2.238723         0.159596         1.209374
 C         3.222031         0.648611         0.227486
 C         2.505392        -0.304917        -0.958084
 C         2.396409         0.317841        -2.360928
 C         2.397260         1.874305        -1.911817
 C         2.258244         1.675612        -0.298967
 O         2.054610         2.830422         0.478694
 H        -0.360336         0.903202         0.637852
 H        -0.624516         0.107038        -1.021941
 H        -0.055790        -0.817099         0.521891
 H         4.276049         0.742699         0.556462
 H         2.627676        -1.429117        -0.790145
 H         3.295050         0.204480        -2.950189
 H         1.549706         0.197581        -3.030323
 H         3.223023         2.490005        -2.288631
 H         1.424479         2.232318        -2.236079
 H         1.835953         2.397526         1.329923
