19
Iteration:   488
 C        -0.118837         0.347538         0.128283
 C         1.420257         0.348432        -0.060149
 O         2.312509         0.174769         1.109410
 C         3.164487         0.589786         0.124689
 C         2.603057        -0.314464        -0.923232
 C         2.619685         0.455208        -2.319335
 C         2.232648         1.792355        -1.887541
 C         2.220909         1.598673        -0.384836
 O         1.982800         2.659274         0.441797
 H        -0.416004         1.221703         0.751965
 H        -0.529844         0.566468        -0.800733
 H        -0.492079        -0.609618         0.530385
 H         4.208921         0.652944         0.462867
 H         2.737133        -1.290526        -0.905899
 H         3.704339         0.380273        -2.760973
 H         2.018467         0.055630        -3.064607
 H         2.962747         2.549860        -2.314344
 H         1.260034         2.099400        -2.363418
 H         2.000997         2.355379         1.378987
