19
Iteration:  1120
 C        -0.012916        -0.164897        -0.019556
 C         1.367818         0.376288        -0.003763
 O         2.257424         0.291961         1.208721
 C         3.178242         0.491603         0.199487
 C         2.385732        -0.330442        -0.885379
 C         2.377626         0.474544        -2.246267
 C         2.435654         1.976431        -1.859318
 C         2.251220         1.711130        -0.399742
 O         2.168172         2.844327         0.317077
 H        -0.735916         0.327608         0.641459
 H        -0.416277        -0.039209        -1.118833
 H        -0.043299        -1.206833         0.129002
 H         4.245993         0.720486         0.400606
 H         2.601807        -1.420993        -1.166103
 H         3.123149         0.324319        -2.924531
 H         1.391066         0.177755        -2.750966
 H         3.413914         2.509592        -2.150601
 H         1.670129         2.649757        -2.263163
 H         2.028683         2.512084         1.238721
