19
Iteration:  1789charge 0 multiplicity 1
 C        -0.066121         0.105066        -0.098165
 C         1.426068         0.395191         0.000485
 O         2.350851         0.150567         1.206218
 C         3.248072         0.576605         0.075372
 C         2.432588        -0.289285        -0.956531
 C         2.480980         0.352515        -2.338849
 C         2.273235         1.823456        -1.874249
 C         2.183489         1.722570        -0.303128
 O         2.098212         2.833987         0.496398
 H        -0.612553         0.775161         0.618726
 H        -0.369440         0.340233        -1.084805
 H        -0.332188        -0.943216         0.157994
 H         4.251591         0.610692         0.410655
 H         2.671623        -1.312079        -0.696091
 H         3.447088         0.304068        -2.751488
 H         1.717245         0.023950        -3.141360
 H         3.108017         2.570553        -1.886190
 H         1.382932         2.230927        -2.388526
 H         1.702790         2.558011         1.332756
