19
Iteration:  3096
 C        -0.027216        -0.044968        -0.083016
 C         1.409413         0.328830        -0.044994
 O         2.263298         0.236831         1.277112
 C         3.178729         0.578094         0.125197
 C         2.506548        -0.359171        -0.925810
 C         2.428189         0.380646        -2.249899
 C         2.249535         1.923584        -1.896223
 C         2.292464         1.740097        -0.306989
 O         2.118027         2.898817         0.380049
 H        -0.628363         0.369022         0.764460
 H        -0.509474         0.238777        -1.056093
 H        -0.202019        -1.115328        -0.035722
 H         4.227804         0.580134         0.408693
 H         2.628958        -1.488562        -0.896675
 H         3.345751         0.219163        -2.832457
 H         1.730389         0.032781        -3.079077
 H         3.036614         2.546451        -2.406355
 H         1.349458         2.297726        -2.248057
 H         2.356005         2.736134         1.324006
