19
Iteration:  3445charge 0 multiplicity 1
 C         0.018728        -0.030147        -0.038989
 C         1.418879         0.387432        -0.067621
 O         2.180050         0.236361         1.241201
 C         3.234953         0.523444         0.136927
 C         2.497973        -0.316967        -0.859508
 C         2.389335         0.391643        -2.332938
 C         2.456491         1.865181        -1.905363
 C         2.289382         1.720751        -0.381765
 O         2.017867         2.902212         0.418985
 H        -0.389827         0.514882         0.881965
 H        -0.729851         0.203875        -0.858092
 H        -0.048250        -1.031334         0.241673
 H         4.284160         0.527060         0.314454
 H         2.547453        -1.390084        -0.944017
 H         3.067064         0.044826        -3.121828
 H         1.422864         0.187045        -2.865771
 H         3.357477         2.528588        -2.106344
 H         1.517990         2.375699        -2.157522
 H         2.022864         2.478145         1.314809
