19
Iteration:   122
 C        -0.134283         0.278065         0.133369
 C         1.418525         0.327620        -0.002636
 O         2.352893         0.211884         1.182333
 C         3.313480         0.453751         0.171945
 C         2.489599        -0.343247        -0.988236
 C         2.631639         0.434769        -2.330770
 C         2.332999         1.886263        -1.904420
 C         2.179605         1.659460        -0.381817
 O         1.860604         2.733183         0.380511
 H        -0.389188         1.091390         0.730462
 H        -0.490279         0.454198        -0.883895
 H        -0.628729        -0.604095         0.467480
 H         4.367545         0.499344         0.421846
 H         2.535839        -1.482265        -1.103472
 H         3.630767         0.400230        -2.619668
 H         2.123664        -0.032628        -3.235160
 H         3.136987         2.535314        -2.128474
 H         1.422896         2.396210        -2.461014
 H         1.979054         2.401506         1.308395
