19
Iteration:  4924
 C        -0.055818         0.312267         0.136383
 C         1.436815         0.328250         0.028470
 O         2.274439         0.039855         1.161956
 C         3.286354         0.593490         0.082303
 C         2.452346        -0.278114        -0.963802
 C         2.572719         0.384226        -2.362762
 C         2.399985         1.899084        -1.847583
 C         2.297748         1.628365        -0.386564
 O         1.807759         2.749917         0.376001
 H        -0.258105         0.919520         1.005744
 H        -0.335914         0.784743        -0.793774
 H        -0.389521        -0.658680         0.232994
 H         4.339047         0.739525         0.400245
 H         2.675840        -1.416128        -0.965897
 H         3.639093         0.357555        -2.584476
 H         1.925473         0.103491        -3.157226
 H         3.162722         2.583228        -2.088034
 H         1.397224         2.374725        -2.281099
 H         1.727140         2.299972         1.253991
