19
Iteration:   366charge 0 multiplicity 1
 C        -0.058859         0.033971         0.032060
 C         1.446096         0.383207         0.035498
 O         2.263087         0.215067         1.151292
 C         3.187885         0.539473         0.067105
 C         2.408560        -0.341663        -0.943326
 C         2.512943         0.331460        -2.275121
 C         2.322337         1.936166        -1.920393
 C         2.280770         1.746435        -0.393909
 O         2.074840         2.854321         0.498514
 H        -0.761513         0.604082         0.615356
 H        -0.198415         0.210688        -1.057708
 H        -0.191563        -1.047351         0.229504
 H         4.251330         0.528801         0.421066
 H         2.535636        -1.386622        -0.904360
 H         3.466322         0.154017        -2.887847
 H         1.762203        -0.072398        -2.957850
 H         3.221358         2.610726        -2.270236
 H         1.295846         2.315445        -2.354608
 H         1.903147         2.574332         1.421032
