19
Iteration:  2199
 C        -0.052157        -0.013206         0.049205
 C         1.446717         0.308913         0.007489
 O         2.170219         0.147439         1.220449
 C         3.277124         0.525861         0.098042
 C         2.525594        -0.290464        -0.973829
 C         2.333052         0.492283        -2.353597
 C         2.518986         1.943389        -1.829621
 C         2.256766         1.696356        -0.366843
 O         2.007275         2.860741         0.347787
 H        -0.475467         0.634882         0.752448
 H        -0.690107         0.103493        -0.866089
 H        -0.237615        -1.058216         0.356594
 H         4.338474         0.613743         0.379375
 H         2.631616        -1.395312        -0.806581
 H         3.099428         0.197699        -3.146127
 H         1.355556         0.237548        -2.682022
 H         3.580929         2.273925        -1.880178
 H         1.888098         2.834297        -2.201147
 H         1.881175         2.615092         1.298116
