19
Iteration:  1753charge 0 multiplicity 1
 C        -0.040529         0.334853         0.089402
 C         1.462940         0.320868        -0.121889
 O         2.259301         0.127540         1.189462
 C         3.293527         0.554383         0.173617
 C         2.616279        -0.326839        -0.932083
 C         2.515757         0.442712        -2.410371
 C         2.311687         1.859714        -1.833446
 C         2.253457         1.565109        -0.374042
 O         1.824479         2.779077         0.430152
 H        -0.101327         1.062492         0.830758
 H        -0.634838         0.760229        -0.765074
 H        -0.515462        -0.629855         0.413766
 H         4.425024         0.225639         0.537815
 H         2.886870        -1.447949        -0.966220
 H         3.377906         0.213435        -3.114562
 H         1.642822        -0.039189        -2.872655
 H         3.073470         2.584933        -2.246869
 H         1.319721         2.263471        -2.295473
 H         2.109989         2.631417         1.339904
