19
Iteration:  2310
 C        -0.125063         0.201721         0.043578
 C         1.408125         0.373270        -0.055976
 O         2.373547         0.071090         1.151278
 C         3.216299         0.535518         0.088411
 C         2.421395        -0.326686        -0.952182
 C         2.641740         0.402912        -2.317348
 C         2.299990         1.851869        -1.868194
 C         2.149166         1.700120        -0.328580
 O         1.977833         2.860558         0.446989
 H        -0.473777         0.804561         0.816319
 H        -0.546802         0.279801        -0.957542
 H        -0.408534        -0.818714         0.439515
 H         4.299924         0.447271         0.287852
 H         2.520415        -1.382875        -0.686498
 H         3.773050         0.264596        -2.552420
 H         2.123452         0.118074        -3.166468
 H         3.050655         2.575262        -2.124861
 H         1.364035         2.344879        -2.384626
 H         2.417944         2.738363         1.308280
