19
Iteration:  3169charge 0 multiplicity 1
 C        -0.052444         0.350202         0.186591
 C         1.429394         0.364663        -0.058895
 O         2.335631         0.092076         1.208371
 C         3.214623         0.553131         0.062258
 C         2.502765        -0.364201        -0.961483
 C         2.656919         0.477307        -2.340550
 C         2.369440         1.824926        -1.858618
 C         2.203056         1.622249        -0.377390
 O         1.783758         2.741742         0.326037
 H        -0.482257         1.070644         0.819083
 H        -0.728567         0.062995        -0.603841
 H        -0.064017        -0.621648         0.863475
 H         4.290762         0.714998         0.219990
 H         2.560637        -1.466462        -0.941033
 H         3.687861         0.487879        -2.749495
 H         2.024588         0.021702        -3.121088
 H         3.257626         2.459805        -2.007418
 H         1.431783         2.452249        -2.241983
 H         2.105410         2.674833         1.252594
