19
Iteration:  1293
 C        -0.067026        -0.142874        -0.085384
 C         1.389339         0.422151        -0.008168
 O         2.251516         0.217120         1.247434
 C         3.301256         0.578439         0.103133
 C         2.468980        -0.296720        -0.919830
 C         2.304495         0.341160        -2.333732
 C         2.393341         1.890849        -1.841960
 C         2.257972         1.721211        -0.308517
 O         2.163927         2.998038         0.412951
 H        -0.769234         0.398555         0.611349
 H        -0.514701        -0.096952        -1.133920
 H        -0.075211        -1.184424         0.205900
 H         4.317555         0.559356         0.323560
 H         2.388989        -1.443818        -0.724287
 H         3.012891         0.080466        -3.227434
 H         1.399526        -0.142125        -2.868483
 H         3.458481         2.216566        -2.120390
 H         1.574393         2.537998        -2.278637
 H         1.873399         2.620610         1.255514
