19
Iteration:  1615
 C        -0.022296         0.109876        -0.062659
 C         1.405408         0.331649        -0.043302
 O         2.347305         0.157180         1.200339
 C         3.200759         0.592871         0.094869
 C         2.471654        -0.400667        -0.876168
 C         2.407149         0.435415        -2.235715
 C         2.319025         1.892556        -1.803926
 C         2.229094         1.696690        -0.344181
 O         2.054290         2.854855         0.344332
 H        -0.636075         0.877616         0.603662
 H        -0.322145         0.411314        -1.081685
 H        -0.265499        -1.019916         0.076142
 H         4.216898         0.729548         0.427470
 H         2.590483        -1.504635        -0.671616
 H         3.301494         0.136552        -2.762133
 H         1.611963         0.013264        -2.958074
 H         3.203078         2.473752        -2.175756
 H         1.533866         2.472206        -2.314157
 H         2.099463         2.462772         1.265947
