19
Iteration:   620
 C        -0.020715         0.065932         0.107065
 C         1.415574         0.309574        -0.034211
 O         2.225460         0.214620         1.232059
 C         3.214432         0.553405         0.092006
 C         2.407981        -0.344499        -0.953753
 C         2.574675         0.467554        -2.357311
 C         2.419048         1.972701        -1.898124
 C         2.172446         1.608546        -0.375931
 O         2.052881         2.788542         0.370766
 H        -0.341427         0.837364         0.884131
 H        -0.526630         0.306260        -0.858074
 H        -0.377643        -0.908445         0.483464
 H         4.297062         0.518414         0.346481
 H         2.378570        -1.324380        -0.790689
 H         3.554998         0.185066        -2.911777
 H         1.749407         0.320497        -2.995638
 H         3.215123         2.768879        -1.812936
 H         1.476993         2.414459        -2.308785
 H         1.806238         2.375198         1.228121
