19
Iteration:  1286charge 0 multiplicity 1
 C        -0.096730        -0.139695        -0.066742
 C         1.376317         0.403507         0.042135
 O         2.263571         0.224952         1.241697
 C         3.246619         0.560263         0.128646
 C         2.468367        -0.266487        -0.894675
 C         2.318111         0.374308        -2.340544
 C         2.414827         1.890363        -1.842373
 C         2.274087         1.725159        -0.339764
 O         2.170319         2.926504         0.371390
 H        -0.770341         0.350748         0.551956
 H        -0.437178        -0.043333        -1.115735
 H        -0.021737        -1.171793         0.214839
 H         4.381461         0.552980         0.177404
 H         2.657351        -1.325683        -0.995996
 H         3.116183         0.090330        -2.953153
 H         1.298741         0.115519        -2.731036
 H         3.333371         2.333204        -2.317479
 H         1.626023         2.485346        -2.241129
 H         1.746583         2.774438         1.237412
