19
Iteration:  3819charge 0 multiplicity 1
 C        -0.093655         0.029261         0.091239
 C         1.349903         0.326754        -0.117571
 O         2.320103         0.151677         1.192674
 C         3.155649         0.481962         0.134708
 C         2.461940        -0.317237        -0.936064
 C         2.606768         0.540591        -2.304849
 C         2.344899         1.959439        -1.881561
 C         2.199552         1.655804        -0.370761
 O         2.032935         2.810887         0.422293
 H        -0.447153         0.888497         0.628567
 H        -0.602666         0.105123        -0.850058
 H        -0.401673        -1.012659         0.529392
 H         4.216057         0.579847         0.272598
 H         2.672380        -1.391809        -0.995489
 H         3.533171         0.613144        -2.900668
 H         1.770226         0.219983        -3.040052
 H         3.353580         2.537832        -1.951037
 H         1.579267         2.593811        -2.359783
 H         2.261127         2.487281         1.316269
