19
Iteration:  3517
 C        -0.013350         0.276980         0.144591
 C         1.486807         0.378359        -0.028574
 O         2.188653         0.079593         1.177107
 C         3.283677         0.432326         0.074997
 C         2.515802        -0.289000        -1.004172
 C         2.705721         0.432476        -2.291539
 C         2.219233         1.872947        -1.841310
 C         2.241517         1.681922        -0.382382
 O         1.880848         2.765629         0.335989
 H        -0.171573         1.058992         0.814906
 H        -0.603990         0.586268        -0.705092
 H        -0.542415        -0.656022         0.592741
 H         4.290087         0.709094         0.517956
 H         2.577280        -1.345308        -0.710821
 H         3.755832         0.403523        -2.597227
 H         2.214881         0.137079        -3.199529
 H         2.747779         2.726733        -2.181008
 H         1.143176         1.886149        -2.223912
 H         2.086534         2.673117         1.285862
