19
Iteration:   669
 C         0.053320         0.393964         0.015228
 C         1.485515         0.352861        -0.033438
 O         2.252590         0.017432         1.209112
 C         3.181522         0.539519         0.119547
 C         2.512345        -0.348490        -0.990537
 C         2.634204         0.405952        -2.333335
 C         2.187706         1.841685        -1.887911
 C         2.250266         1.666786        -0.318693
 O         1.888390         2.788540         0.460924
 H        -0.337042         1.159819         0.641817
 H        -0.356881         0.393299        -0.989662
 H        -0.300931        -0.557271         0.454560
 H         4.225397         0.740361         0.336416
 H         2.829392        -1.495769        -0.890872
 H         3.616406         0.411366        -2.745786
 H         1.891012        -0.023653        -3.175162
 H         2.710313         2.618715        -2.434272
 H         1.113605         2.003876        -2.061591
 H         2.574769         2.762237         1.167790
