19
Iteration:  4340charge 0 multiplicity 1
 C        -0.028208         0.082966        -0.157577
 C         1.399924         0.426728        -0.115160
 O         2.383355         0.083057         1.261380
 C         3.227593         0.612984         0.113968
 C         2.457184        -0.287079        -0.937299
 C         2.462899         0.367640        -2.297984
 C         2.302168         1.805057        -1.825599
 C         2.181742         1.654235        -0.308074
 O         2.033896         2.957538         0.478597
 H        -0.638624         0.867293         0.503737
 H        -0.690660         0.000395        -0.968506
 H        -0.289330        -0.843926         0.397522
 H         4.298179         0.677721         0.237286
 H         2.626941        -1.372896        -0.953270
 H         3.424928         0.004350        -2.825819
 H         1.745912        -0.180857        -2.939165
 H         3.119287         2.415558        -2.245671
 H         1.403282         2.471788        -2.164171
 H         2.174360         2.510367         1.325860
