19
Iteration:  4061
 C        -0.026361         0.282278         0.043122
 C         1.425955         0.411859        -0.086352
 O         2.304161         0.073865         1.182955
 C         3.261835         0.421676         0.120121
 C         2.557388        -0.259220        -0.929893
 C         2.602266         0.362949        -2.272138
 C         2.248739         1.955701        -1.941073
 C         2.111215         1.671346        -0.433900
 O         1.915369         2.769489         0.531063
 H        -0.349338         0.700106         0.962295
 H        -0.443625         0.640592        -0.925088
 H        -0.303251        -0.851717         0.109706
 H         4.364502         0.392658         0.242004
 H         2.561522        -1.306588        -0.759346
 H         3.575681         0.377648        -2.708194
 H         1.972093        -0.008681        -3.154343
 H         3.098052         2.744352        -2.268306
 H         1.269211         2.355143        -2.311630
 H         2.450021         2.443888         1.263741
