19
Iteration:  1471
 C         0.039760        -0.047122        -0.088089
 C         1.409814         0.356571         0.005328
 O         2.255624         0.219094         1.242365
 C         3.176105         0.634554         0.102811
 C         2.482969        -0.247863        -0.853938
 C         2.340334         0.393295        -2.252019
 C         2.311528         1.850151        -1.877627
 C         2.198438         1.721512        -0.366979
 O         2.182524         2.829526         0.359719
 H        -0.689146         0.516515         0.478363
 H        -0.315936         0.025994        -1.196153
 H        -0.079205        -1.157897         0.139787
 H         4.095516         0.695575         0.544645
 H         2.381432        -1.308947        -0.941738
 H         3.214293         0.200823        -2.910516
 H         1.332597         0.125366        -2.736461
 H         3.354918         2.279217        -2.103308
 H         1.688293         2.593644        -2.334386
 H         2.388329         2.469188         1.266392
