19
Iteration:  3147
 C        -0.005727         0.273410         0.193883
 C         1.445722         0.324256        -0.050402
 O         2.313803         0.093931         1.106628
 C         3.283051         0.546490         0.113074
 C         2.501793        -0.300644        -0.971354
 C         2.591610         0.279391        -2.339700
 C         2.444974         1.882055        -1.906666
 C         2.226841         1.715079        -0.359825
 O         1.707626         2.825982         0.428408
 H        -0.184280         1.108911         0.799463
 H        -0.480231         0.438772        -0.792762
 H        -0.558104        -0.684497         0.686541
 H         4.350076         0.598103         0.384720
 H         2.711864        -1.372975        -0.830768
 H         3.515478         0.167715        -2.939824
 H         1.711688         0.117994        -3.010656
 H         3.233944         2.631455        -2.002564
 H         1.423714         2.330732        -2.443015
 H         1.954307         2.443939         1.306315
