19
Iteration:  3503
 C        -0.037028         0.310621         0.193366
 C         1.396818         0.388299        -0.073273
 O         2.285210         0.050089         1.119695
 C         3.244579         0.553355         0.144675
 C         2.435891        -0.363390        -0.967681
 C         2.774799         0.430951        -2.365924
 C         2.271730         1.785404        -1.922601
 C         2.178187         1.645953        -0.350622
 O         1.853379         2.867662         0.416805
 H        -0.354217         0.848538         1.110326
 H        -0.639700         0.544718        -0.659504
 H        -0.076396        -0.775619         0.459211
 H         4.346822         0.461588         0.371000
 H         2.452072        -1.459270        -1.071340
 H         3.833629         0.459369        -2.401341
 H         2.287900         0.002904        -3.243699
 H         3.051145         2.640793        -2.175613
 H         1.310520         2.090772        -2.280091
 H         2.267658         2.629446         1.276312
