19
Iteration:  4623charge 0 multiplicity 1
 C        -0.006894         0.095942         0.018161
 C         1.403447         0.430324        -0.140536
 O         2.240894         0.124780         1.211248
 C         3.217388         0.581536         0.181792
 C         2.484388        -0.332612        -0.933608
 C         2.459471         0.358342        -2.326242
 C         2.388673         1.897740        -1.929117
 C         2.259204         1.707088        -0.374337
 O         2.004730         2.805409         0.465694
 H        -0.359750         1.017910         0.572084
 H        -0.415323         0.100472        -0.941544
 H        -0.085029        -0.819502         0.631324
 H         4.257942         0.640632         0.506324
 H         2.636730        -1.382991        -0.764205
 H         3.365679         0.217613        -2.896653
 H         1.537943         0.034663        -2.861202
 H         3.222370         2.621484        -2.288377
 H         1.515561         2.443844        -2.235604
 H         1.810940         2.524585         1.362194
