19
Iteration:   841
 C        -0.043240         0.373068        -0.027416
 C         1.456461         0.288857        -0.082545
 O         2.328914         0.161309         1.198351
 C         3.307220         0.505686         0.174404
 C         2.555158        -0.274050        -0.953178
 C         2.584908         0.415918        -2.307905
 C         2.143645         1.886761        -1.810608
 C         2.151378         1.560748        -0.382471
 O         1.991113         2.725716         0.419976
 H        -0.248875         1.170864         0.683260
 H        -0.613352         0.698066        -1.005405
 H        -0.635232        -0.508113         0.306692
 H         4.389107         0.525377         0.480531
 H         2.690687        -1.416144        -0.782202
 H         3.576852         0.530639        -2.732759
 H         1.950153        -0.035160        -3.056268
 H         2.921798         2.619405        -2.173620
 H         1.120781         2.044802        -2.306921
 H         1.751687         2.232162         1.240997
