19
Iteration:  1998
 C        -0.088995        -0.058808         0.086715
 C         1.337988         0.321274        -0.055393
 O         2.139116         0.068494         1.168115
 C         3.194246         0.585417         0.061773
 C         2.540077        -0.253528        -0.991617
 C         2.477514         0.459161        -2.297887
 C         2.384359         1.875955        -1.890767
 C         2.230289         1.718131        -0.323279
 O         2.227239         2.956916         0.459289
 H        -0.716435         0.519315         0.800968
 H        -0.496847         0.007380        -0.857691
 H        -0.152719        -1.072674         0.439659
 H         4.267488         0.592650         0.115199
 H         2.765190        -1.346205        -0.722717
 H         3.261618         0.248113        -2.936807
 H         1.547623         0.293312        -2.921615
 H         3.367085         2.429910        -2.067946
 H         1.587414         2.409689        -2.357139
 H         1.691705         2.887206         1.265423
