19
Iteration:  1236
 C        -0.088868         0.211667         0.197808
 C         1.358982         0.431406        -0.032248
 O         2.284071         0.098729         1.106095
 C         3.174549         0.604378         0.135504
 C         2.536800        -0.308713        -1.017576
 C         2.662498         0.352387        -2.371834
 C         2.336565         1.792251        -1.871898
 C         2.244360         1.686408        -0.388943
 O         1.919048         2.848836         0.460995
 H        -0.514180         0.976838         0.969971
 H        -0.563895         0.304466        -0.742793
 H        -0.172884        -0.882244         0.580270
 H         4.232340         0.557913         0.380840
 H         2.666406        -1.385364        -0.936539
 H         3.684671         0.327485        -2.918361
 H         1.816854        -0.123580        -2.829426
 H         3.019437         2.415542        -2.385481
 H         1.366873         2.027045        -2.398483
 H         2.397226         2.530356         1.264638
