19
Iteration:  1174charge 0 multiplicity 1
 C        -0.074708         0.308683         0.039875
 C         1.462194         0.374506        -0.038133
 O         2.304607         0.060381         1.198348
 C         3.268868         0.580774         0.115717
 C         2.511269        -0.283877        -0.911103
 C         2.595580         0.371340        -2.320002
 C         2.221962         1.803622        -1.917302
 C         2.236725         1.700731        -0.346376
 O         1.921713         2.774504         0.413634
 H        -0.419907         1.056145         0.738084
 H        -0.653893         0.373371        -0.904935
 H        -0.306587        -0.635836         0.445180
 H         4.346790         0.500285         0.183613
 H         2.739103        -1.397166        -0.920401
 H         3.575926         0.422079        -2.792586
 H         1.841519        -0.123537        -3.060080
 H         3.048464         2.519034        -2.284984
 H         1.227784         2.249875        -2.122388
 H         2.201087         2.548102         1.325817
