19
Iteration:  2087
 C        -0.052182         0.334314         0.058944
 C         1.514553         0.349058        -0.094283
 O         2.254751         0.005316         1.169887
 C         3.245621         0.605939         0.135201
 C         2.578112        -0.300917        -0.985307
 C         2.579807         0.371170        -2.383301
 C         2.179012         1.872122        -1.878234
 C         2.212389         1.628739        -0.312330
 O         1.982530         2.806515         0.502530
 H        -0.320009         1.216603         0.657215
 H        -0.483729         0.586213        -0.951063
 H        -0.438696        -0.605886         0.351643
 H         4.280726         0.730105         0.374163
 H         2.689279        -1.493916        -0.794144
 H         3.504159         0.322899        -2.968179
 H         1.747271        -0.106683        -3.003835
 H         2.884475         2.718121        -2.213468
 H         1.163705         2.050712        -2.218861
 H         1.977012         2.404734         1.391505
