19
Iteration:  3659charge 0 multiplicity 1
 C        -0.103718         0.174585         0.201109
 C         1.409546         0.327753        -0.004096
 O         2.236568         0.085430         1.129391
 C         3.264415         0.454111         0.084338
 C         2.463923        -0.270720        -0.990582
 C         2.731142         0.459576        -2.307783
 C         2.274190         1.926532        -1.879759
 C         2.226538         1.677679        -0.361114
 O         1.925658         2.824948         0.370068
 H        -0.482822         0.668567         1.055785
 H        -0.569995         0.574117        -0.732915
 H        -0.345731        -0.941985         0.206113
 H         4.330775         0.694876         0.362016
 H         2.405445        -1.355160        -1.036730
 H         3.795464         0.376939        -2.514915
 H         2.207457         0.044961        -3.172356
 H         3.128403         2.571634        -2.125544
 H         1.273156         2.286298        -2.291087
 H         2.349467         2.659998         1.219870
