19
Iteration:  3361
 C        -0.024643         0.238900         0.117643
 C         1.398861         0.450744        -0.123330
 O         2.212588         0.110833         1.177126
 C         3.240041         0.547549         0.114111
 C         2.480830        -0.324991        -0.971357
 C         2.724852         0.328450        -2.330683
 C         2.193691         1.838549        -1.926953
 C         2.254700         1.682455        -0.364622
 O         1.978103         2.813507         0.465809
 H        -0.408161         1.095753         0.767041
 H        -0.541337        -0.016494        -0.790412
 H        -0.052325        -0.642742         0.791188
 H         4.268620         0.836640         0.456841
 H         2.561007        -1.385084        -1.114246
 H         3.764889         0.260111        -2.597274
 H         2.004367        -0.147514        -2.981903
 H         2.930282         2.688895        -2.230760
 H         1.201294         2.000185        -2.284884
 H         1.883794         2.524186         1.385749
