19
Iteration:  1876
 C         0.015285         0.135665         0.105213
 C         1.404512         0.409889        -0.055940
 O         2.262797         0.041700         1.202439
 C         3.216045         0.543310         0.036969
 C         2.391907        -0.318236        -0.970493
 C         2.517707         0.426044        -2.319209
 C         2.412445         1.935595        -1.846372
 C         2.291511         1.717968        -0.341307
 O         1.928623         2.818267         0.400175
 H        -0.602423         0.810369         0.694900
 H        -0.554848         0.067631        -0.748155
 H        -0.159141        -0.900805         0.418142
 H         4.323223         0.695909         0.142746
 H         2.523915        -1.378840        -0.872818
 H         3.508785         0.202070        -2.604941
 H         1.882937         0.139537        -3.209860
 H         3.381318         2.437602        -1.984270
 H         1.568790         2.506910        -2.276914
 H         1.953742         2.599883         1.361815
