19
Iteration:  3084
 C        -0.013807        -0.120698        -0.107914
 C         1.379760         0.426116        -0.073237
 O         2.265036         0.191871         1.207949
 C         3.169377         0.506085         0.150039
 C         2.412254        -0.250914        -0.860008
 C         2.489257         0.320752        -2.234471
 C         2.192821         1.904998        -1.861602
 C         2.257780         1.766366        -0.446070
 O         2.176855         2.951358         0.423105
 H        -0.599799         0.326499         0.683890
 H        -0.483077         0.190967        -1.065277
 H         0.180282        -1.229416         0.010665
 H         4.234856         0.579584         0.286335
 H         2.690692        -1.350184        -0.808088
 H         3.533079         0.356249        -2.493337
 H         1.679371        -0.335734        -2.754626
 H         3.033424         2.588613        -2.119107
 H         1.267166         2.360038        -2.033187
 H         2.627754         2.742701         1.263903
