19
Iteration:  2320charge 0 multiplicity 1
 C        -0.079972         0.171219         0.070531
 C         1.320223         0.343492        -0.073609
 O         2.357127         0.067384         1.167938
 C         3.168283         0.537442         0.067585
 C         2.433267        -0.312147        -0.895941
 C         2.556433         0.442024        -2.298523
 C         2.358187         1.876699        -1.798692
 C         2.250607         1.674196        -0.366124
 O         1.968238         2.860821         0.379844
 H        -0.555621         0.862464         0.690652
 H        -0.576752         0.314636        -0.924073
 H        -0.099031        -0.944377         0.317022
 H         4.257406         0.620842         0.145850
 H         2.788388        -1.377928        -0.922897
 H         3.660028         0.451598        -2.653078
 H         1.968062         0.059513        -3.044304
 H         3.302485         2.356931        -1.880960
 H         1.492223         2.422820        -2.341566
 H         2.351215         2.728472         1.256079
