19
Iteration:    62charge 0 multiplicity 1
 C         0.017362        -0.054191        -0.024235
 C         1.404280         0.355504        -0.031731
 O         2.125733         0.210581         1.288244
 C         3.205896         0.515705         0.145198
 C         2.587853        -0.340560        -0.904307
 C         2.412813         0.448747        -2.308330
 C         2.352961         1.947381        -1.882760
 C         2.190952         1.682222        -0.372095
 O         2.160520         2.898752         0.335527
 H        -0.631412         0.609454         0.715739
 H        -0.587630         0.022725        -1.035400
 H        -0.031074        -1.145039         0.307777
 H         4.294073         0.542932         0.408098
 H         2.768315        -1.403526        -0.915987
 H         3.196386         0.239433        -3.136557
 H         1.438961         0.178038        -2.719372
 H         3.257692         2.638008        -2.137026
 H         1.466079         2.290659        -2.366557
 H         2.070650         2.769629         1.310642
