19
Iteration:   447charge 0 multiplicity 1
 C        -0.060085         0.143883         0.103590
 C         1.409194         0.456060        -0.024435
 O         2.314904         0.073790         1.108076
 C         3.237044         0.502538         0.124480
 C         2.450217        -0.308311        -0.978406
 C         2.524821         0.384384        -2.289161
 C         2.382286         1.808223        -1.806423
 C         2.242757         1.724645        -0.326990
 O         1.958641         2.893042         0.333819
 H        -0.665200         0.793839         0.786879
 H        -0.451024         0.252841        -0.902807
 H        -0.161967        -0.880488         0.402490
 H         4.296180         0.516740         0.403401
 H         2.585569        -1.416690        -0.698515
 H         3.493323         0.377300        -2.797852
 H         1.752782         0.143217        -3.032432
 H         3.200435         2.552299        -2.047496
 H         1.486892         2.307374        -2.149753
 H         1.738562         2.491621         1.198637
