19
Iteration:  4416
 C        -0.048545         0.167103         0.180056
 C         1.423983         0.354397         0.000543
 O         2.218341         0.063686         1.191987
 C         3.211533         0.604970        -0.027911
 C         2.525005        -0.226684        -0.966900
 C         2.662059         0.383937        -2.276733
 C         2.377463         1.878362        -1.965246
 C         2.235148         1.709415        -0.391837
 O         1.890418         2.776308         0.463006
 H        -0.609546         0.970836         0.826736
 H        -0.591933         0.280389        -0.729053
 H        -0.572452        -0.757224         0.539331
 H         4.279574         0.691811         0.088241
 H         2.458390        -1.282977        -0.810280
 H         3.743299         0.174266        -2.497760
 H         1.945770         0.222765        -3.093951
 H         3.265630         2.502974        -2.294389
 H         1.527194         2.118090        -2.579339
 H         2.057200         2.322970         1.317559
