19
Iteration:  3420
 C        -0.022450        -0.032101        -0.132955
 C         1.368526         0.425340         0.021917
 O         2.304405         0.158425         1.156143
 C         3.188017         0.619186         0.153943
 C         2.501621        -0.263046        -0.837444
 C         2.296142         0.327006        -2.243500
 C         2.394752         1.846081        -1.843153
 C         2.261066         1.732238        -0.367254
 O         2.115026         2.896630         0.397949
 H        -0.796018         0.554950         0.329068
 H        -0.281691         0.139128        -1.212926
 H        -0.185037        -1.148493         0.116614
 H         4.217124         0.930858         0.461547
 H         2.740990        -1.352450        -0.926328
 H         3.105529         0.072501        -3.020641
 H         1.420239        -0.078071        -2.775532
 H         3.355452         2.204533        -2.055024
 H         1.611552         2.594170        -2.233913
 H         2.137750         2.496390         1.307641
