19
Iteration:  1965charge 0 multiplicity 1
 C        -0.115609         0.095681        -0.017309
 C         1.406963         0.367969        -0.040356
 O         2.282995         0.140793         1.193665
 C         3.252463         0.521717         0.095753
 C         2.395395        -0.295374        -0.920898
 C         2.546946         0.494811        -2.283870
 C         2.257690         1.891171        -1.789231
 C         2.324724         1.678061        -0.334780
 O         2.064736         2.797611         0.371403
 H        -0.654528         0.735794         0.684018
 H        -0.346136         0.277642        -0.997837
 H        -0.140230        -0.938116         0.052925
 H         4.310596         0.492674         0.209682
 H         2.484375        -1.406446        -0.971214
 H         3.499137         0.256235        -2.614463
 H         1.807717         0.211699        -3.082416
 H         2.959255         2.679912        -2.188424
 H         1.249382         2.157285        -2.080428
 H         2.330476         2.614846         1.307820
