19
Iteration:  3983
 C        -0.126231        -0.025169         0.044561
 C         1.359198         0.354013        -0.007526
 O         2.217548         0.083359         1.131646
 C         3.210803         0.597173         0.004889
 C         2.500529        -0.295952        -0.982589
 C         2.518424         0.428134        -2.352469
 C         2.408316         1.918604        -1.809674
 C         2.316186         1.734893        -0.308260
 O         2.007323         2.872161         0.497769
 H        -0.620473         0.794677         0.443860
 H        -0.484486        -0.171926        -0.948150
 H        -0.260934        -1.071124         0.521183
 H         4.261605         0.603177         0.261909
 H         2.555678        -1.318076        -0.677697
 H         3.443752         0.433563        -2.919336
 H         1.610616         0.184461        -2.961904
 H         3.402746         2.457202        -1.952492
 H         1.604294         2.435327        -2.345555
 H         2.523560         2.967078         1.310884
