19
Iteration:  2453charge 0 multiplicity 1
 C        -0.035500         0.300044         0.107182
 C         1.445281         0.303172        -0.104656
 O         2.191989         0.077997         1.212300
 C         3.265146         0.484998         0.158417
 C         2.537495        -0.334253        -0.951482
 C         2.710171         0.450818        -2.420962
 C         2.143700         1.818380        -1.917232
 C         2.263519         1.679338        -0.307798
 O         2.034622         2.853158         0.460550
 H        -0.270688         1.134733         0.765123
 H        -0.546046         0.431819        -0.838036
 H        -0.532000        -0.573206         0.568762
 H         4.350180         0.513136         0.426547
 H         2.557592        -1.379396        -0.813707
 H         3.753268         0.427872        -2.906760
 H         2.035829         0.147600        -3.119933
 H         2.618001         2.644101        -2.386758
 H         1.095123         1.780771        -2.358962
 H         1.248402         2.683304         1.010410
