19
Iteration:  3846charge 0 multiplicity 1
 C        -0.000034         0.289954         0.033334
 C         1.465833         0.406095        -0.006579
 O         2.279837         0.095845         1.068961
 C         3.269381         0.567489         0.069766
 C         2.466925        -0.278819        -0.925620
 C         2.596257         0.386598        -2.338918
 C         2.253346         1.856670        -1.901006
 C         2.288539         1.612016        -0.285649
 O         1.895326         2.742961         0.529857
 H        -0.515903         0.958751         0.784125
 H        -0.355970         0.570434        -1.021583
 H        -0.272180        -0.702272         0.114201
 H         4.364292         0.635797         0.301672
 H         2.649336        -1.362072        -0.882430
 H         3.569588         0.424754        -2.802407
 H         1.884938         0.024190        -3.038511
 H         2.915027         2.655424        -2.102266
 H         1.219994         2.093895        -2.149736
 H         1.542842         2.339187         1.343316
