19
Iteration:   785
 C        -0.099543         0.000102         0.083950
 C         1.354750         0.399594         0.015340
 O         2.266650         0.016209         1.197233
 C         3.138782         0.581198         0.097224
 C         2.444414        -0.242637        -0.963211
 C         2.543765         0.450879        -2.287448
 C         2.456336         1.918458        -1.836619
 C         2.193003         1.672211        -0.411688
 O         2.036802         2.880863         0.383758
 H        -0.717121         0.490815         0.830485
 H        -0.498573         0.154056        -1.031878
 H        -0.061854        -1.057440         0.300383
 H         4.250036         0.793969         0.260609
 H         2.637940        -1.323850        -0.789089
 H         3.390725         0.189315        -2.951532
 H         1.676910         0.168509        -2.802092
 H         3.392023         2.509971        -2.020351
 H         1.710697         2.498353        -2.474934
 H         2.863768         3.006836         0.885479
