19
Iteration:  2999
 C        -0.029638         0.284164         0.119478
 C         1.467183         0.371670        -0.035219
 O         2.370356         0.131879         1.145392
 C         3.295011         0.584954         0.118488
 C         2.457226        -0.352195        -0.973417
 C         2.537602         0.350149        -2.378008
 C         2.458838         1.854979        -1.935421
 C         2.126766         1.688237        -0.292227
 O         1.743863         2.765597         0.466199
 H        -0.220391         1.284444         0.688843
 H        -0.556841         0.335908        -0.888708
 H        -0.368000        -0.582768         0.667426
 H         4.347008         0.672527         0.446412
 H         2.702698        -1.479699        -0.903818
 H         3.568594         0.166273        -2.777014
 H         1.923651        -0.118653        -3.184611
 H         3.506654         2.296145        -2.215557
 H         1.744520         2.381125        -2.619127
 H         1.646275         2.443166         1.387806
