19
Iteration:  4809charge 0 multiplicity 1
 C        -0.107232         0.059019        -0.072400
 C         1.383640         0.315012        -0.152989
 O         2.235310         0.132180         1.210128
 C         3.241071         0.573267         0.173439
 C         2.628305        -0.332246        -0.922414
 C         2.454649         0.375021        -2.233700
 C         2.240915         1.941729        -1.878436
 C         2.264006         1.717922        -0.313259
 O         2.125725         2.885021         0.396759
 H        -0.770369         0.872716         0.431898
 H        -0.768466        -0.131809        -0.968555
 H        -0.438055        -0.908731         0.597421
 H         4.332472         0.489028         0.490199
 H         2.898247        -1.373470        -0.860411
 H         3.257081         0.413053        -2.998631
 H         1.401123         0.123998        -2.571297
 H         3.241694         2.593484        -2.114051
 H         1.378889         2.417304        -2.388091
 H         2.317939         2.578144         1.337063
