19
Iteration:  1156charge 0 multiplicity 1
 C         0.018617         0.120653         0.006170
 C         1.417971         0.354817        -0.064410
 O         2.265036         0.095908         1.107879
 C         3.203704         0.606614         0.131489
 C         2.512012        -0.342742        -0.909515
 C         2.458705         0.332173        -2.273434
 C         2.288386         1.875982        -1.870923
 C         2.195297         1.733340        -0.372566
 O         2.049689         2.900314         0.470744
 H        -0.434074         0.897853         0.625484
 H        -0.295002         0.358592        -1.083384
 H        -0.230398        -0.904311         0.412505
 H         4.263745         0.873688         0.531362
 H         2.645606        -1.435123        -0.753642
 H         3.332478         0.106867        -2.866277
 H         1.674644        -0.119414        -2.823074
 H         3.114285         2.481482        -2.204727
 H         1.407745         2.136431        -2.388364
 H         2.233656         2.639910         1.399379
