19
Iteration:  1660
 C        -0.074810        -0.090094        -0.043125
 C         1.400374         0.351766        -0.126444
 O         2.178352         0.185944         1.107795
 C         3.199658         0.586623         0.196814
 C         2.447606        -0.324983        -0.886436
 C         2.426876         0.385196        -2.198361
 C         2.278709         1.884441        -1.883322
 C         2.322859         1.771151        -0.385088
 O         2.223317         2.932622         0.438454
 H        -0.614867         0.622559         0.756746
 H        -0.572480        -0.169893        -0.982200
 H         0.124544        -1.115615         0.413793
 H         4.283491         0.534125         0.506796
 H         2.596937        -1.383166        -0.944547
 H         3.345638         0.245190        -2.771005
 H         1.614485         0.094476        -2.937373
 H         2.954901         2.572525        -2.362707
 H         1.362877         2.444963        -2.023651
 H         2.350282         2.639860         1.382848
