19
Iteration:   824
 C        -0.005308         0.314427         0.030482
 C         1.455209         0.370802        -0.018597
 O         2.211541         0.083543         1.183763
 C         3.214623         0.533670         0.083976
 C         2.573848        -0.356727        -0.959944
 C         2.614845         0.420821        -2.293123
 C         2.189086         1.848126        -1.891394
 C         2.310061         1.656755        -0.361948
 O         1.914643         2.780082         0.453002
 H        -0.492114         1.058391         0.713571
 H        -0.330034         0.519399        -0.916773
 H        -0.355458        -0.717880         0.239069
 H         4.233679         0.583122         0.385819
 H         2.731622        -1.387546        -1.082735
 H         3.613067         0.370492        -2.803532
 H         1.770974         0.015676        -2.959497
 H         2.802808         2.674765        -2.189309
 H         1.163501         2.018740        -2.012888
 H         2.496995         2.730140         1.236129
