19
Iteration:  4360charge 0 multiplicity 1
 C        -0.073725         0.193451         0.002884
 C         1.453648         0.312547         0.021359
 O         2.284177         0.100215         1.122457
 C         3.230460         0.585154         0.091956
 C         2.545517        -0.300061        -0.904631
 C         2.564086         0.384539        -2.279162
 C         2.222958         1.898049        -1.860507
 C         2.241974         1.667898        -0.336129
 O         1.991953         2.815685         0.410702
 H        -0.628524         1.138942         0.429972
 H        -0.304196         0.065426        -1.101512
 H        -0.373577        -0.727436         0.494056
 H         4.253576         0.547815         0.498808
 H         2.595414        -1.408787        -0.705880
 H         3.452097         0.155654        -2.887916
 H         1.794579         0.159360        -3.037099
 H         2.969133         2.711542        -2.215616
 H         1.346241         2.266965        -2.312259
 H         2.145434         2.677702         1.348327
