19
Iteration:  1582
 C        -0.002188         0.316747         0.160302
 C         1.446342         0.458672        -0.049519
 O         2.233868         0.091460         1.173872
 C         3.246316         0.561410         0.134744
 C         2.580342        -0.333395        -0.953058
 C         2.584552         0.368847        -2.385585
 C         2.307390         1.794337        -1.964795
 C         2.182588         1.676102        -0.373479
 O         1.886263         2.764059         0.431350
 H        -0.263295         1.015355         1.038041
 H        -0.400987         0.574831        -0.830061
 H        -0.305231        -0.775289         0.434902
 H         4.210262         0.574804         0.624356
 H         2.697749        -1.461933        -0.893645
 H         3.568093         0.262946        -2.843505
 H         1.702180        -0.017068        -3.029183
 H         3.219936         2.420464        -2.172041
 H         1.394356         2.323544        -2.303919
 H         1.991736         2.422741         1.333954
