19
Iteration:  3756
 C        -0.057290        -0.088292        -0.020047
 C         1.380479         0.390818         0.004697
 O         2.198447         0.122654         1.199852
 C         3.212278         0.548818         0.094353
 C         2.455544        -0.277344        -0.911048
 C         2.438521         0.540718        -2.330431
 C         2.406191         1.930857        -1.848584
 C         2.336981         1.705624        -0.351873
 O         2.114738         2.840630         0.393319
 H        -0.724039         0.569504         0.470985
 H        -0.297655        -0.062789        -1.108429
 H        -0.187150        -1.136253         0.433896
 H         4.310013         0.706248         0.273508
 H         2.441717        -1.352172        -0.808245
 H         3.238770         0.284440        -2.976090
 H         1.437498         0.239281        -2.763797
 H         3.361541         2.514813        -1.894760
 H         1.533482         2.412068        -2.118510
 H         1.693363         2.545251         1.225879
