19
Iteration:  2886charge 0 multiplicity 1
 C        -0.074702        -0.072206         0.004292
 C         1.402810         0.317895        -0.019344
 O         2.124898         0.181343         1.209132
 C         3.283753         0.611531         0.137593
 C         2.455623        -0.343191        -0.914318
 C         2.546446         0.421355        -2.250689
 C         2.256975         1.940961        -1.851906
 C         2.238445         1.732783        -0.445473
 O         2.198988         2.898711         0.367477
 H        -0.649303         0.356223         0.816737
 H        -0.619660         0.158965        -0.928042
 H        -0.124231        -1.270990         0.177829
 H         4.301572         0.661838         0.514230
 H         2.405685        -1.404636        -0.951113
 H         3.517588         0.311145        -2.750671
 H         1.729171        -0.023909        -2.962379
 H         3.032939         2.647393        -2.251993
 H         1.324746         2.289870        -2.243193
 H         2.474098         2.833894         1.300806
