19
Iteration:   966charge 0 multiplicity 1
 C        -0.052621        -0.025269         0.018562
 C         1.392866         0.394822         0.017104
 O         2.235441         0.195813         1.153227
 C         3.242733         0.486158         0.112073
 C         2.456114        -0.335862        -0.911514
 C         2.443407         0.452411        -2.330593
 C         2.362400         1.947218        -1.866804
 C         2.307182         1.710914        -0.372548
 O         2.050146         2.882186         0.403783
 H        -0.767218         0.536204         0.720336
 H        -0.452681         0.161231        -0.972793
 H        -0.210492        -1.104823         0.272381
 H         4.258857         0.510878         0.506682
 H         2.476159        -1.402970        -0.924445
 H         3.403574         0.199276        -2.586529
 H         1.778101        -0.063470        -3.060801
 H         3.297366         2.489080        -2.123303
 H         1.511222         2.489804        -2.186524
 H         2.196468         2.523814         1.315350
