19
Iteration:  1259charge 0 multiplicity 1
 C        -0.044284        -0.010147         0.064649
 C         1.424263         0.313526        -0.038189
 O         2.211602         0.171165         1.195685
 C         3.240842         0.590159         0.133266
 C         2.470505        -0.359087        -0.895249
 C         2.473502         0.384244        -2.332439
 C         2.363728         1.966959        -1.833676
 C         2.169047         1.703157        -0.394073
 O         2.104849         2.885323         0.332837
 H        -0.398514         0.754061         0.847446
 H        -0.564070         0.173334        -0.870799
 H        -0.213278        -1.033601         0.479907
 H         4.281223         0.735826         0.290430
 H         2.469993        -1.479433        -0.918465
 H         3.504976         0.251841        -2.828086
 H         1.555922         0.057988        -2.866509
 H         3.275233         2.496514        -2.129861
 H         1.528265         2.571666        -2.325275
 H         2.210871         2.647754         1.280826
