19
Iteration:  4711
 C        -0.031415         0.168873         0.105240
 C         1.376418         0.342789        -0.098529
 O         2.197071         0.037983         1.153259
 C         3.237053         0.598102         0.126452
 C         2.515883        -0.318889        -0.926962
 C         2.659978         0.402757        -2.251573
 C         2.265449         1.888288        -1.894939
 C         2.212467         1.650098        -0.406483
 O         2.059966         2.893271         0.402882
 H        -0.341717         0.822951         0.966653
 H        -0.737054         0.419247        -0.652169
 H        -0.554683        -0.857370         0.261311
 H         4.250725         0.641733         0.545654
 H         2.650717        -1.380232        -1.018659
 H         3.627614         0.330934        -2.807455
 H         1.768814         0.013723        -2.817859
 H         3.109177         2.668872        -2.200909
 H         1.361337         2.286589        -2.417517
 H         1.811611         2.510919         1.270875
