19
Iteration:  3726charge 0 multiplicity 1
 C        -0.046623         0.184228        -0.086935
 C         1.461778         0.367503        -0.103640
 O         2.320662         0.100571         1.188499
 C         3.233857         0.544765         0.130451
 C         2.554297        -0.337829        -0.949807
 C         2.475083         0.414487        -2.254873
 C         2.255950         1.884993        -1.918357
 C         2.235990         1.646724        -0.324848
 O         1.947450         2.827780         0.528129
 H        -0.280786         0.975532         0.651121
 H        -0.470660         0.581224        -1.071500
 H        -0.467149        -0.741125         0.147340
 H         4.276918         0.885453         0.377952
 H         2.577400        -1.424525        -1.045846
 H         3.364508         0.162248        -2.844945
 H         1.700418        -0.076390        -2.766451
 H         3.100285         2.562639        -1.843360
 H         1.343103         2.399191        -2.459848
 H         2.407245         2.502688         1.359030
