19
Iteration:   648charge 0 multiplicity 1
 C        -0.130451         0.273359         0.077501
 C         1.389832         0.368586        -0.071469
 O         2.298227         0.073256         1.080967
 C         3.273036         0.559576         0.099462
 C         2.585022        -0.288109        -1.005336
 C         2.641882         0.343546        -2.284987
 C         2.251872         1.811317        -1.877215
 C         2.210553         1.677256        -0.326040
 O         1.962685         2.862674         0.484285
 H        -0.340724         1.098604         0.765836
 H        -0.708806         0.432480        -0.795666
 H        -0.495590        -0.638662         0.610066
 H         4.284729         0.477538         0.469837
 H         2.629158        -1.445064        -0.806272
 H         3.590322         0.295539        -2.763413
 H         1.969592        -0.135555        -3.069360
 H         2.908737         2.628705        -2.080003
 H         1.277424         2.171956        -2.175302
 H         1.938055         2.336580         1.321576
