19
Iteration:  3435charge 0 multiplicity 1
 C        -0.062313        -0.038193        -0.061710
 C         1.468039         0.377909        -0.062870
 O         2.197709         0.200050         1.191430
 C         3.294029         0.619229         0.149037
 C         2.469673        -0.330212        -0.894288
 C         2.351558         0.356995        -2.258302
 C         2.415277         1.883004        -1.909384
 C         2.320289         1.757636        -0.349242
 O         2.038943         2.881663         0.430094
 H        -0.709212         0.457936         0.749534
 H        -0.516102         0.031748        -1.114340
 H         0.021932        -1.053298         0.059423
 H         4.301963         0.401732         0.417312
 H         2.411842        -1.389276        -0.639572
 H         3.116421         0.037450        -2.936036
 H         1.283707         0.237826        -2.541647
 H         3.379158         2.456494        -2.356032
 H         1.661605         2.424305        -2.456767
 H         2.071940         2.723096         1.386416
