19
Iteration:  1537charge 0 multiplicity 1
 C        -0.165303         0.258453         0.213155
 C         1.417054         0.434845         0.032106
 O         2.312008         0.132794         1.187447
 C         3.181505         0.460086         0.098242
 C         2.536134        -0.358154        -1.040073
 C         2.742123         0.402811        -2.392879
 C         2.278199         1.872566        -1.859747
 C         2.190831         1.669406        -0.375796
 O         1.937521         2.816513         0.357875
 H        -0.592162         0.971166         0.971919
 H        -0.563382         0.211562        -0.867775
 H        -0.281042        -0.837874         0.614795
 H         4.205385         0.619548         0.229367
 H         2.423088        -1.472181        -0.854211
 H         3.820011         0.441687        -2.621158
 H         2.048412        -0.114038        -3.155543
 H         3.103331         2.638276        -2.072108
 H         1.384267         2.184518        -2.418505
 H         2.176639         2.432879         1.215057
