19
Iteration:  2166
 C        -0.059823        -0.032085         0.072683
 C         1.422674         0.354258        -0.109998
 O         2.191857         0.136836         1.157459
 C         3.203009         0.571853         0.071092
 C         2.463076        -0.317635        -0.930398
 C         2.472498         0.416454        -2.336269
 C         2.442996         1.957474        -1.824341
 C         2.234632         1.708329        -0.410185
 O         2.073583         2.893632         0.468781
 H        -0.331063         0.572588         0.882383
 H        -0.782482         0.084010        -0.807967
 H        -0.106652        -1.025033         0.565381
 H         4.241207         0.647364         0.414652
 H         2.475429        -1.448233        -0.690619
 H         3.343637         0.134949        -3.028728
 H         1.569969         0.244471        -2.879110
 H         3.393690         2.487741        -2.061356
 H         1.581018         2.547849        -2.307523
 H         2.104913         2.511106         1.367438
