19
Iteration:  4669
 C        -0.031070         0.058497        -0.157032
 C         1.451467         0.334189        -0.012167
 O         2.281574         0.155517         1.272720
 C         3.227227         0.544291         0.143374
 C         2.419333        -0.334856        -0.869232
 C         2.445388         0.450985        -2.229386
 C         2.312069         1.944345        -1.848874
 C         2.158960         1.722914        -0.415719
 O         2.144234         2.829858         0.365207
 H        -0.624428         0.301234         0.731501
 H        -0.520376         0.335099        -1.095052
 H        -0.037462        -1.129355        -0.147031
 H         4.316764         0.621948         0.264357
 H         2.403137        -1.399352        -0.747690
 H         3.449113         0.081460        -2.567966
 H         1.533714         0.161612        -2.807783
 H         3.078660         2.691842        -2.140980
 H         1.398810         2.368762        -2.453701
 H         2.277969         2.703910         1.299395
