19
Iteration:  1110
 C         0.002683        -0.168088        -0.011122
 C         1.406746         0.358025        -0.015904
 O         2.191314         0.257447         1.211597
 C         3.212263         0.569698         0.101571
 C         2.388179        -0.332461        -0.912895
 C         2.412921         0.432678        -2.270295
 C         2.433515         1.971190        -1.881298
 C         2.249042         1.711566        -0.411622
 O         2.144480         2.910548         0.385488
 H        -0.697998         0.240227         0.716244
 H        -0.515612        -0.092087        -1.077986
 H         0.108093        -1.195407         0.263743
 H         4.275922         0.371010         0.465863
 H         2.212219        -1.449887        -0.701034
 H         3.076621        -0.024550        -2.867815
 H         1.457738         0.463968        -2.787494
 H         3.443768         2.458553        -1.921567
 H         1.668345         2.585706        -2.280387
 H         2.222172         2.598981         1.323090
