19
Iteration:  3662
 C        -0.074943         0.190495         0.187155
 C         1.400389         0.316400        -0.010121
 O         2.247109         0.090255         1.142983
 C         3.267950         0.428658         0.087706
 C         2.480206        -0.266795        -0.979744
 C         2.722992         0.462168        -2.304884
 C         2.252167         1.942301        -1.871454
 C         2.217850         1.688251        -0.404531
 O         1.919333         2.812336         0.366097
 H        -0.520461         0.688067         1.104951
 H        -0.551523         0.637858        -0.734778
 H        -0.367804        -0.808563         0.230938
 H         4.296396         0.546309         0.370569
 H         2.517193        -1.363498        -1.064904
 H         3.853896         0.322524        -2.412598
 H         2.174300         0.066165        -3.125287
 H         3.047001         2.591183        -2.003463
 H         1.260843         2.270220        -2.347034
 H         2.307999         2.611045         1.251741
