19
Iteration:  4788
 C         0.009229         0.152966         0.015403
 C         1.407943         0.349769        -0.008059
 O         2.245604         0.126086         1.190733
 C         3.246993         0.579231         0.084693
 C         2.510432        -0.295033        -0.976657
 C         2.495096         0.387376        -2.338966
 C         2.379107         1.860546        -1.833250
 C         2.213791         1.642427        -0.327070
 O         1.994294         2.834038         0.423187
 H        -0.578081         1.076133         0.266782
 H        -0.362970         0.012099        -1.020470
 H        -0.492279        -0.658024         0.688025
 H         4.252034         0.787898         0.486297
 H         2.500843        -1.364556        -0.973045
 H         3.435951         0.376425        -2.924691
 H         1.609011        -0.024772        -2.897819
 H         3.261842         2.540724        -2.191039
 H         1.388016         2.307633        -2.143277
 H         1.885394         2.597780         1.364240
