19
Iteration:    48
 C         0.024393        -0.126031        -0.040354
 C         1.443247         0.363891        -0.023472
 O         2.131185         0.258746         1.193939
 C         3.210427         0.642795         0.031426
 C         2.410224        -0.308597        -0.921822
 C         2.466849         0.390009        -2.219642
 C         2.358238         1.872315        -1.774849
 C         2.192871         1.701770        -0.349736
 O         2.190712         2.874939         0.348691
 H        -0.546391         0.435993         0.657363
 H        -0.291100         0.061794        -1.213761
 H         0.037305        -1.181240         0.228674
 H         4.214768         0.902111         0.377534
 H         2.363523        -1.437683        -0.815835
 H         3.262046         0.044991        -2.846917
 H         1.483164         0.148046        -2.800383
 H         3.208985         2.494098        -1.887336
 H         1.483704         2.556077        -2.192261
 H         2.245130         2.553867         1.261212
