19
Iteration:  2990
 C        -0.034270         0.329065         0.116016
 C         1.424888         0.279038        -0.057319
 O         2.404175         0.151916         1.152770
 C         3.277996         0.585509         0.080889
 C         2.501905        -0.356554        -0.983353
 C         2.530370         0.359554        -2.252516
 C         2.476438         1.859078        -1.951716
 C         2.189144         1.673557        -0.391042
 O         1.719232         2.760944         0.479563
 H        -0.440640         1.248720         0.700950
 H        -0.612167         0.410258        -0.843654
 H        -0.459645        -0.446241         0.645748
 H         4.355689         0.788237         0.337111
 H         2.661307        -1.477109        -1.054897
 H         3.541081         0.048267        -2.609001
 H         1.749718         0.114703        -2.914663
 H         3.491573         2.384577        -2.028549
 H         1.645923         2.469889        -2.507662
 H         1.578202         2.241080         1.294354
