19
Iteration:   288charge 0 multiplicity 1
 C        -0.072202         0.260004         0.156002
 C         1.451942         0.411942        -0.075114
 O         2.326294         0.122237         1.112718
 C         3.208810         0.525058         0.109163
 C         2.472859        -0.324528        -0.937966
 C         2.626209         0.369075        -2.299304
 C         2.373547         1.888783        -1.873116
 C         2.272678         1.642280        -0.392824
 O         1.875105         2.763508         0.405038
 H        -0.351939         1.013196         0.825037
 H        -0.536661         0.425004        -0.894164
 H        -0.339402        -0.715359         0.473978
 H         4.234694         0.786313         0.430456
 H         2.311376        -1.463350        -0.898787
 H         3.626500         0.155837        -2.638045
 H         1.873006         0.074773        -3.105568
 H         2.975237         2.765792        -2.119958
 H         1.208093         2.051943        -2.096075
 H         1.660908         2.601863         1.361555
