19
Iteration:  3688charge 0 multiplicity 1
 C        -0.018749         0.387311         0.054771
 C         1.450795         0.302981        -0.113412
 O         2.299465         0.135273         1.190250
 C         3.294869         0.475271         0.107139
 C         2.554714        -0.354883        -0.982089
 C         2.675734         0.467085        -2.327130
 C         2.175248         1.846768        -1.838142
 C         2.230447         1.624448        -0.349485
 O         1.886849         2.733676         0.459967
 H        -0.259475         0.904789         1.002105
 H        -0.479673         0.897822        -0.758244
 H        -0.514391        -0.633778         0.201365
 H         4.285590         0.811658         0.359391
 H         2.360335        -1.438692        -0.985575
 H         3.701117         0.503975        -2.719636
 H         1.932386         0.073179        -3.086170
 H         2.945509         2.550523        -2.305712
 H         1.192645         2.069774        -2.122926
 H         1.389112         2.504981         1.262142
