19
Iteration:  1960
 C        -0.084444         0.150983        -0.024676
 C         1.415859         0.358196        -0.029760
 O         2.280167         0.136530         1.192734
 C         3.226632         0.490774         0.038234
 C         2.451139        -0.313269        -0.871895
 C         2.541447         0.495177        -2.309887
 C         2.264462         1.857986        -1.800639
 C         2.321592         1.709437        -0.333682
 O         2.031311         2.810726         0.415180
 H        -0.746180         0.668155         0.696219
 H        -0.541087         0.392995        -1.115236
 H        -0.253631        -1.015848         0.181787
 H         4.370171         0.469978         0.250810
 H         2.448204        -1.371857        -1.049379
 H         3.641311         0.370911        -2.722315
 H         1.859351         0.068926        -3.021215
 H         2.858629         2.602533        -2.279309
 H         1.234982         2.210396        -2.093013
 H         2.392070         2.601431         1.287095
