19
Iteration:  4991charge 0 multiplicity 1
 C        -0.016725        -0.039087        -0.056785
 C         1.442014         0.431834        -0.046180
 O         2.172416         0.151906         1.211637
 C         3.153684         0.563177         0.146754
 C         2.525523        -0.285880        -0.991215
 C         2.482194         0.391673        -2.360784
 C         2.271003         1.886852        -1.842460
 C         2.113353         1.722952        -0.393801
 O         2.248378         2.873548         0.510904
 H        -0.529207         0.864334         0.340921
 H        -0.342498        -0.226498        -1.034145
 H        -0.219986        -0.975907         0.422794
 H         4.211669         0.681671         0.652440
 H         2.659046        -1.427266        -0.933073
 H         3.486821         0.227279        -2.823528
 H         1.591477         0.031844        -2.888691
 H         3.136956         2.527472        -2.126279
 H         1.283351         2.338696        -2.242463
 H         2.224767         2.641370         1.476145
