19
Iteration:   121charge 0 multiplicity 1
 C        -0.131727         0.271951         0.129251
 C         1.418946         0.334860        -0.003244
 O         2.354626         0.206640         1.185363
 C         3.308534         0.447498         0.168784
 C         2.492261        -0.341428        -0.992169
 C         2.629536         0.428245        -2.332300
 C         2.318491         1.883368        -1.901383
 C         2.172330         1.663654        -0.384452
 O         1.861548         2.742405         0.382984
 H        -0.391853         1.137112         0.724206
 H        -0.410802         0.466345        -0.860444
 H        -0.626004        -0.639223         0.475017
 H         4.366529         0.502804         0.415010
 H         2.537219        -1.460209        -1.108127
 H         3.649294         0.425623        -2.615981
 H         2.128163        -0.054834        -3.203391
 H         3.189727         2.511454        -2.091142
 H         1.491673         2.405235        -2.465677
 H         1.988476         2.403414         1.293952
