19
Iteration:   777charge 0 multiplicity 1
 C        -0.117122        -0.047678         0.093105
 C         1.374922         0.350839         0.061497
 O         2.218451         0.093161         1.181146
 C         3.189933         0.597248         0.115301
 C         2.462174        -0.356030        -0.924028
 C         2.488829         0.460544        -2.375262
 C         2.504302         2.028774        -1.828807
 C         2.172026         1.720675        -0.386842
 O         2.064385         2.835282         0.322798
 H        -0.738708         0.452980         0.824686
 H        -0.524148         0.112335        -0.971373
 H        -0.056326        -1.151573         0.288863
 H         4.238284         0.775213         0.361659
 H         2.589538        -1.522449        -0.736072
 H         3.369434         0.176513        -2.871946
 H         1.531682         0.306006        -3.042200
 H         3.555340         2.420763        -1.857872
 H         1.684792         2.712457        -2.191644
 H         2.802897         2.953394         0.941806
