19
Iteration:  2214
 C        -0.030320         0.049758        -0.002258
 C         1.386052         0.356698        -0.099562
 O         2.368322         0.088940         1.135724
 C         3.156976         0.581320         0.088037
 C         2.437629        -0.342909        -0.930608
 C         2.403148         0.413373        -2.209599
 C         2.513776         1.903001        -1.790475
 C         2.225077         1.719953        -0.357317
 O         1.984116         2.907325         0.418038
 H        -0.587938         0.745367         0.757074
 H        -0.377642         0.185493        -1.012036
 H        -0.180619        -1.006116         0.359644
 H         4.257548         0.521194         0.285437
 H         2.600936        -1.367923        -0.933860
 H         3.140545         0.097606        -2.997747
 H         1.404226         0.377997        -2.697411
 H         3.435226         2.387980        -2.047002
 H         1.731558         2.379572        -2.418679
 H         1.718259         2.709894         1.335899
