19
Iteration:  2503charge 0 multiplicity 1
 C        -0.014649         0.125475         0.084907
 C         1.414603         0.403020        -0.042809
 O         2.297932         0.165562         1.173673
 C         3.158967         0.548397         0.166753
 C         2.457549        -0.330939        -1.021814
 C         2.487578         0.334749        -2.358134
 C         2.495504         1.903131        -1.850821
 C         2.256931         1.679048        -0.368154
 O         1.867624         2.845477         0.457224
 H        -0.483906         0.749013         0.870220
 H        -0.513436         0.407449        -0.890229
 H        -0.295387        -0.983409         0.259122
 H         4.209506         0.485060         0.376285
 H         2.774799        -1.407499        -1.093740
 H         3.350656         0.019565        -2.900651
 H         1.538747         0.180849        -3.039185
 H         3.508520         2.363693        -2.108241
 H         1.685381         2.479032        -2.318569
 H         2.377723         2.721018         1.303980
