19
Iteration:   354charge 0 multiplicity 1
 C        -0.052168         0.106640        -0.000448
 C         1.381415         0.363820        -0.049779
 O         2.293034         0.176058         1.180721
 C         3.275380         0.562327         0.048202
 C         2.459429        -0.340244        -0.922506
 C         2.531657         0.359913        -2.310730
 C         2.273155         1.887014        -1.827983
 C         2.169962         1.660844        -0.324364
 O         2.063029         2.864652         0.436260
 H        -0.429067         0.837107         0.688083
 H        -0.667895         0.284854        -0.956274
 H        -0.367464        -0.886856         0.333742
 H         4.353501         0.808142         0.183515
 H         2.515528        -1.437179        -0.780236
 H         3.615164         0.299733        -2.492833
 H         1.918761        -0.052148        -3.169227
 H         3.202464         2.434879        -2.170549
 H         1.381506         2.454594        -2.330052
 H         2.199685         2.546199         1.344364
