19
Iteration:  1718charge 0 multiplicity 1
 C        -0.052970         0.262835         0.159789
 C         1.386246         0.302408        -0.061564
 O         2.327313         0.050542         1.126770
 C         3.250478         0.592755         0.034359
 C         2.431811        -0.322838        -0.887726
 C         2.633753         0.434563        -2.276441
 C         2.411315         1.892908        -1.908858
 C         2.171554         1.676130        -0.359719
 O         1.888671         2.800185         0.394577
 H        -0.348242         1.002290         0.921235
 H        -0.635544         0.445470        -0.793008
 H        -0.322386        -0.687686         0.563612
 H         4.447757         0.452014        -0.088258
 H         2.591793        -1.395286        -0.792249
 H         3.671213         0.125360        -2.637659
 H         1.917366         0.152560        -2.995540
 H         3.255267         2.571276        -2.113376
 H         1.444646         2.373556        -2.186500
 H         1.619772         2.424084         1.248260
