19
Iteration:  4074charge 0 multiplicity 1
 C        -0.097856         0.123637         0.087751
 C         1.429606         0.395610        -0.024299
 O         2.285380         0.131096         1.130165
 C         3.271690         0.460247         0.084264
 C         2.428768        -0.333922        -0.980767
 C         2.639967         0.442918        -2.315218
 C         2.300552         1.928143        -1.894392
 C         2.243630         1.761886        -0.331866
 O         1.929434         2.792689         0.467544
 H        -0.550465         0.667711         0.924562
 H        -0.679136         0.577512        -0.753338
 H        -0.278293        -0.886816         0.094905
 H         4.349280         0.296897         0.409682
 H         2.537836        -1.430009        -1.087495
 H         3.652617         0.226777        -2.601105
 H         1.891942        -0.059317        -2.985955
 H         3.131190         2.713103        -2.113325
 H         1.419113         2.192109        -2.434043
 H         2.374764         2.723868         1.346683
