19
Iteration:  4152charge 0 multiplicity 1
 C         0.003918         0.003405        -0.036345
 C         1.413634         0.365937        -0.069574
 O         2.274757         0.156037         1.186734
 C         3.231272         0.501384         0.138889
 C         2.435364        -0.291270        -0.938762
 C         2.400289         0.504077        -2.276401
 C         2.379440         1.920426        -1.807048
 C         2.199467         1.688954        -0.358854
 O         2.052106         2.838639         0.402614
 H        -0.569349         0.761250         0.592387
 H        -0.390638        -0.137642        -1.059526
 H        -0.093057        -0.913333         0.419326
 H         4.303048         0.656769         0.409153
 H         2.296965        -1.413533        -0.898634
 H         3.327239         0.302012        -2.829637
 H         1.591937         0.138560        -2.925489
 H         3.385545         2.447185        -2.001955
 H         1.629275         2.472945        -2.355435
 H         2.412127         2.602411         1.268094
