19
Iteration:  3218charge 0 multiplicity 1
 C        -0.019147        -0.036625         0.002149
 C         1.410733         0.492779        -0.117002
 O         2.237156         0.161059         1.197310
 C         3.199806         0.598319         0.169955
 C         2.489396        -0.249912        -0.927917
 C         2.530888         0.369953        -2.327477
 C         2.210964         1.817691        -1.873929
 C         2.208886         1.759947        -0.338049
 O         2.178632         2.839662         0.422881
 H        -0.694004         0.679589         0.636287
 H        -0.544644        -0.123766        -0.999051
 H        -0.243403        -0.939092         0.476303
 H         4.258998         0.703454         0.449392
 H         2.552346        -1.330585        -0.838828
 H         3.563623         0.074944        -2.591327
 H         1.785828        -0.108255        -3.052864
 H         2.924015         2.554842        -2.350501
 H         1.255250         2.038757        -2.177820
 H         2.003178         2.564902         1.341853
