19
Iteration:  4565charge 0 multiplicity 1
 C        -0.072938         0.267999         0.224341
 C         1.446883         0.365511        -0.097165
 O         2.266380         0.008241         1.133934
 C         3.223689         0.559912         0.101099
 C         2.526573        -0.306693        -0.960222
 C         2.670634         0.453933        -2.287146
 C         2.350224         1.864926        -1.932334
 C         2.126313         1.694093        -0.401994
 O         1.922572         2.789978         0.397161
 H        -0.429604         1.183752         0.680571
 H        -0.784840         0.173992        -0.633315
 H        -0.430176        -0.487053         0.844000
 H         4.265607         0.614399         0.480843
 H         2.805822        -1.405509        -1.000708
 H         3.681386         0.245093        -2.553200
 H         2.082276        -0.026048        -3.071255
 H         3.136259         2.627771        -2.136378
 H         1.407969         2.102170        -2.363389
 H         1.869026         2.542636         1.359286
