19
Iteration:  1247charge 0 multiplicity 1
 C        -0.080821         0.105090         0.133735
 C         1.394456         0.383471        -0.072010
 O         2.226052         0.169924         1.174982
 C         3.200352         0.535191         0.069006
 C         2.572719        -0.284788        -1.001868
 C         2.529274         0.366115        -2.339089
 C         2.341712         1.796521        -1.907361
 C         2.218799         1.688296        -0.305320
 O         2.006629         2.897993         0.429490
 H        -0.556211         0.797457         0.939021
 H        -0.708272         0.153106        -0.727386
 H        -0.175630        -0.980723         0.518004
 H         4.235603         0.562554         0.406099
 H         2.828062        -1.331774        -0.852847
 H         3.507645         0.174464        -2.923649
 H         1.851127         0.017426        -3.095895
 H         3.213278         2.405367        -1.979169
 H         1.447236         2.341494        -2.327883
 H         2.397439         2.842242         1.313424
