19
Iteration:   806
 C        -0.073934         0.130498         0.024150
 C         1.433572         0.358832        -0.105797
 O         2.273912         0.050335         1.102060
 C         3.251445         0.547894         0.173214
 C         2.466275        -0.333982        -0.979035
 C         2.555247         0.321523        -2.372051
 C         2.298749         1.863027        -1.858611
 C         2.210367         1.741042        -0.277212
 O         1.958892         2.946075         0.512371
 H        -0.343344         0.825766         0.810307
 H        -0.614591         0.370860        -0.982206
 H        -0.226601        -0.847351         0.411296
 H         4.367835         0.523161         0.468007
 H         2.506901        -1.395539        -0.685333
 H         3.656860         0.187196        -2.646469
 H         1.982881        -0.056580        -3.142704
 H         3.088835         2.512701        -2.296062
 H         1.340891         2.337919        -2.248713
 H         2.692982         3.194555         1.095030
