19
Iteration:  2914
 C        -0.107476        -0.100030        -0.060914
 C         1.330298         0.409212         0.021940
 O         2.275357         0.160172         1.245194
 C         3.177398         0.600737         0.127843
 C         2.457813        -0.273058        -0.983146
 C         2.578924         0.420743        -2.262694
 C         2.206260         1.831171        -1.789618
 C         2.206170         1.716051        -0.354559
 O         2.259262         2.910674         0.327065
 H        -0.932291         0.289712         0.620743
 H        -0.441744         0.149222        -1.075643
 H        -0.183801        -1.084468         0.156376
 H         4.283528         0.653697         0.373656
 H         2.494706        -1.403319        -0.943954
 H         3.606325         0.506273        -2.682115
 H         1.948680        -0.075951        -2.929625
 H         3.024596         2.413546        -2.192209
 H         1.297655         2.320823        -2.287690
 H         2.047671         2.987682         1.290599
