19
Iteration:  3241
 C        -0.031553        -0.090406        -0.104187
 C         1.423395         0.350955         0.034285
 O         2.183214         0.259334         1.250521
 C         3.224613         0.553030         0.040484
 C         2.500155        -0.428619        -0.865838
 C         2.426400         0.434885        -2.240026
 C         2.232078         1.908157        -1.870408
 C         2.287666         1.715369        -0.400861
 O         2.153898         2.946124         0.416903
 H        -0.839924         0.401052         0.542823
 H        -0.257617         0.145378        -1.148063
 H        -0.287310        -1.125874         0.008819
 H         4.312293         0.616847         0.279226
 H         2.831996        -1.432200        -0.792389
 H         3.389716         0.281911        -2.804207
 H         1.562563         0.127577        -2.867117
 H         3.108786         2.452474        -2.197591
 H         1.369511         2.321388        -2.241236
 H         2.547909         2.755819         1.295292
