19
Iteration:   585
 C        -0.073749        -0.069347         0.030845
 C         1.389860         0.449931        -0.042046
 O         2.222406         0.041181         1.150416
 C         3.187388         0.652386         0.121427
 C         2.429201        -0.245095        -0.864170
 C         2.427855         0.369004        -2.340207
 C         2.512646         1.898048        -1.903613
 C         2.245150         1.757654        -0.387630
 O         2.085321         2.894644         0.432030
 H        -0.676284         0.432090         0.857216
 H        -0.677037        -0.014489        -0.843625
 H         0.088951        -1.158436         0.355651
 H         4.248639         0.772519         0.381981
 H         2.520284        -1.239278        -0.637878
 H         3.176837        -0.030783        -3.105638
 H         1.486752         0.136617        -2.716205
 H         3.473065         2.396142        -2.120608
 H         1.718841         2.510244        -2.365147
 H         2.181799         2.620192         1.366578
