19
Iteration:  2784charge 0 multiplicity 1
 C        -0.032269         0.209597         0.087743
 C         1.475921         0.370684        -0.030600
 O         2.220118         0.060731         1.136072
 C         3.252755         0.630006         0.103230
 C         2.544987        -0.323195        -0.938476
 C         2.603805         0.373784        -2.303772
 C         2.254394         1.935614        -1.836899
 C         2.183672         1.705162        -0.397962
 O         1.987266         2.771391         0.398679
 H        -0.306236         1.248051         0.534522
 H        -0.536891         0.118167        -0.907280
 H        -0.345118        -0.597749         0.681146
 H         4.324937         0.507229         0.491571
 H         2.678065        -1.443209        -0.785980
 H         3.487425        -0.020431        -2.943688
 H         1.712493        -0.031994        -2.828904
 H         2.958520         2.652393        -1.988606
 H         1.335819         2.089064        -2.446806
 H         1.860485         2.488035         1.305300
