19
Iteration:   367
 C        -0.054940         0.032141         0.028930
 C         1.438802         0.382857         0.032836
 O         2.264123         0.216160         1.156647
 C         3.181137         0.541328         0.070121
 C         2.412622        -0.340642        -0.945845
 C         2.507386         0.334665        -2.272554
 C         2.325233         1.927387        -1.927898
 C         2.287166         1.756001        -0.392101
 O         2.077175         2.852873         0.496574
 H        -0.789701         0.585484         0.612332
 H        -0.184718         0.197711        -1.018202
 H        -0.162797        -1.055969         0.231636
 H         4.243130         0.489557         0.425855
 H         2.522522        -1.360743        -0.902267
 H         3.463867         0.134328        -2.921581
 H         1.758192        -0.034010        -2.925917
 H         3.224780         2.645541        -2.271080
 H         1.298138         2.315056        -2.345409
 H         1.885157         2.524537         1.415159
