19
Iteration:  1701charge 0 multiplicity 1
 C        -0.189443         0.104500         0.152094
 C         1.356961         0.370003        -0.003784
 O         2.365772         0.150318         1.166081
 C         3.186577         0.545850         0.054019
 C         2.490833        -0.328799        -1.037139
 C         2.631576         0.415697        -2.335407
 C         2.355250         1.890005        -1.803269
 C         2.192105         1.650070        -0.369660
 O         2.036661         2.854834         0.394655
 H        -0.613614         0.873875         0.817833
 H        -0.643448         0.245267        -0.826547
 H        -0.585707        -0.855156         0.629472
 H         4.149811         0.690925         0.395320
 H         2.644739        -1.453789        -1.045253
 H         3.671710         0.310817        -2.628982
 H         1.948238        -0.019629        -3.144726
 H         3.262273         2.506776        -1.998704
 H         1.619927         2.359141        -2.466556
 H         1.710604         2.635347         1.281652
