19
Iteration:  1519charge 0 multiplicity 1
 C         0.011930         0.090930         0.117287
 C         1.443951         0.425309        -0.064559
 O         2.208230         0.068232         1.161923
 C         3.193419         0.551090         0.124308
 C         2.395211        -0.266081        -0.914859
 C         2.603030         0.382475        -2.265417
 C         2.297220         1.853841        -1.938870
 C         2.229343         1.689424        -0.364359
 O         2.047782         2.886787         0.377132
 H        -0.457918         0.901505         0.733158
 H        -0.551969         0.114550        -0.738309
 H        -0.145243        -0.873140         0.579512
 H         4.378124         0.504909         0.337781
 H         2.599533        -1.352669        -0.900614
 H         3.642558         0.352458        -2.631426
 H         1.916338         0.091565        -3.086788
 H         2.936991         2.645277        -2.306884
 H         1.314712         2.163716        -2.364703
 H         2.065244         2.591908         1.298892
