19
Iteration:  3951charge 0 multiplicity 1
 C        -0.002558        -0.145149         0.099718
 C         1.359275         0.326069        -0.109594
 O         2.153651         0.118100         1.205092
 C         3.106076         0.589961         0.125774
 C         2.425073        -0.246920        -0.983475
 C         2.513338         0.530051        -2.359447
 C         2.442817         1.985630        -1.809554
 C         2.227189         1.704080        -0.358234
 O         2.174762         2.803304         0.374010
 H        -0.535942         0.561796         0.682535
 H        -0.523961        -0.170012        -0.828312
 H        -0.016661        -1.037918         0.802853
 H         4.134714         0.764240         0.455008
 H         2.458647        -1.294888        -0.764522
 H         3.377670         0.403823        -3.004478
 H         1.668000         0.412205        -3.122173
 H         3.465215         2.565297        -1.902565
 H         1.779219         2.684154        -2.297922
 H         1.968343         2.585576         1.317200
