19
Iteration:  2851charge 0 multiplicity 1
 C        -0.040004         0.148659         0.073263
 C         1.486486         0.348911        -0.066357
 O         2.265469         0.140065         1.205353
 C         3.253498         0.637118         0.099260
 C         2.482921        -0.358824        -0.988631
 C         2.531280         0.306813        -2.319538
 C         2.380429         1.889429        -1.933019
 C         2.180992         1.678500        -0.328965
 O         1.969239         2.848517         0.459337
 H        -0.370801         0.892041         0.854104
 H        -0.522772         0.395486        -0.896937
 H        -0.299166        -0.926805         0.369140
 H         4.258711         0.787649         0.563407
 H         2.411317        -1.430054        -0.933642
 H         3.400634         0.152429        -3.021821
 H         1.617053         0.243731        -2.972146
 H         3.239859         2.444477        -2.056909
 H         1.537445         2.465287        -2.391305
 H         1.554819         2.493276         1.289488
