19
Iteration:  3704charge 0 multiplicity 1
 C        -0.057580         0.360337         0.016673
 C         1.478783         0.382289        -0.007047
 O         2.284941         0.063612         1.113621
 C         3.256150         0.648851         0.105668
 C         2.549293        -0.303917        -1.000691
 C         2.567009         0.320827        -2.345910
 C         2.253373         1.835774        -1.852937
 C         2.250541         1.687606        -0.316168
 O         1.899968         2.718123         0.502310
 H        -0.429744         0.993333         0.833425
 H        -0.348240         0.854100        -0.974335
 H        -0.454907        -0.620991         0.052762
 H         4.322433         0.455226         0.408518
 H         3.048518        -1.253849        -0.839431
 H         3.591896         0.273981        -2.744524
 H         1.936627        -0.096356        -3.091818
 H         2.876587         2.678416        -2.113063
 H         1.088432         1.969436        -2.017770
 H         1.724198         2.197227         1.305996
