19
Iteration:  3654
 C        -0.129074         0.120901         0.190512
 C         1.412834         0.373263        -0.012788
 O         2.237449         0.071133         1.121655
 C         3.237580         0.525860         0.087205
 C         2.442600        -0.300305        -1.014494
 C         2.717293         0.460416        -2.310814
 C         2.329297         1.885722        -1.889228
 C         2.225983         1.657866        -0.302833
 O         1.946061         2.845092         0.379124
 H        -0.451148         0.710826         1.115732
 H        -0.639592         0.485305        -0.687965
 H        -0.300299        -0.948948         0.227101
 H         4.269769         0.762208         0.312678
 H         2.338939        -1.405409        -0.961630
 H         3.775186         0.497691        -2.688009
 H         2.222151         0.028227        -3.220128
 H         3.127541         2.607900        -2.289626
 H         1.393071         2.282059        -2.195483
 H         2.369949         2.774951         1.271709
