19
Iteration:  3844charge 0 multiplicity 1
 C         0.000858         0.289612         0.038825
 C         1.472837         0.387650        -0.002602
 O         2.271696         0.112978         1.077618
 C         3.263018         0.567003         0.054587
 C         2.468477        -0.284851        -0.948036
 C         2.593603         0.382312        -2.332533
 C         2.266093         1.858527        -1.888850
 C         2.278053         1.605976        -0.285387
 O         1.900816         2.754428         0.528986
 H        -0.508312         0.937425         0.746226
 H        -0.413451         0.509422        -1.012970
 H        -0.227353        -0.791832         0.121240
 H         4.361129         0.620263         0.292845
 H         2.596910        -1.350497        -0.908786
 H         3.574894         0.391574        -2.766604
 H         1.859251         0.008256        -3.119136
 H         2.919071         2.771182        -2.044714
 H         1.293149         2.100785        -2.153433
 H         1.556672         2.389996         1.379198
