19
Iteration:  3904
 C        -0.038243         0.182982        -0.042536
 C         1.407635         0.348786        -0.031206
 O         2.300168         0.040741         1.215117
 C         3.259016         0.585839         0.096283
 C         2.468572        -0.291326        -0.972767
 C         2.495380         0.451440        -2.289206
 C         2.329637         1.930387        -1.858267
 C         2.223358         1.634192        -0.338460
 O         1.970487         2.802786         0.445937
 H        -0.563801         0.647774         0.798710
 H        -0.427138         0.570125        -0.961583
 H        -0.171273        -0.903820         0.123027
 H         4.313896         0.642108         0.301043
 H         2.690477        -1.373725        -1.056452
 H         3.514944         0.287662        -2.730965
 H         1.836234         0.045991        -3.021445
 H         3.089520         2.643292        -2.070253
 H         1.370955         2.436891        -2.227643
 H         2.154723         2.539487         1.375035
