19
Iteration:  2734
 C        -0.044093        -0.078646        -0.016387
 C         1.355950         0.451817        -0.019311
 O         2.213289         0.185354         1.186943
 C         3.141607         0.541838         0.068252
 C         2.474420        -0.322141        -0.881780
 C         2.521678         0.493392        -2.216139
 C         2.306386         1.905153        -1.895097
 C         2.194721         1.675044        -0.377434
 O         2.205265         2.867755         0.414355
 H        -0.714160         0.431894         0.614482
 H        -0.306786         0.032587        -1.076844
 H         0.008349        -1.219139         0.270813
 H         4.189807         0.706101         0.210218
 H         2.372587        -1.377153        -0.873792
 H         3.449160         0.185692        -2.607624
 H         1.816227        -0.039476        -2.915993
 H         3.112745         2.657690        -2.395714
 H         1.304148         2.227977        -2.252343
 H         2.548690         2.698193         1.333883
