19
Iteration:  3296
 C         0.009219         0.144919         0.088111
 C         1.477128         0.330533        -0.024022
 O         2.217785         0.137037         1.172340
 C         3.274019         0.536538         0.117763
 C         2.475672        -0.265500        -0.948870
 C         2.533136         0.342098        -2.344152
 C         2.355957         1.839442        -1.898394
 C         2.276238         1.677142        -0.348470
 O         1.880476         2.919977         0.392426
 H        -0.303490         0.810366         0.974668
 H        -0.632322         0.521764        -0.709082
 H        -0.365419        -0.872286         0.197065
 H         4.381542         0.408836         0.199630
 H         2.730098        -1.286923        -0.840216
 H         3.435303        -0.043788        -2.899264
 H         1.573631         0.007349        -2.744549
 H         3.334403         2.367263        -2.002860
 H         1.650211         2.479624        -2.335602
 H         1.690351         2.580456         1.287153
