19
Iteration:  2845
 C        -0.011777         0.174449         0.064299
 C         1.461523         0.330898         0.006079
 O         2.283670         0.150259         1.169950
 C         3.252993         0.601252         0.054425
 C         2.487498        -0.377567        -0.983629
 C         2.508926         0.395181        -2.287991
 C         2.370552         1.883046        -1.939328
 C         2.232793         1.673390        -0.288253
 O         1.904763         2.802125         0.422507
 H        -0.381337         0.904777         0.769127
 H        -0.416127         0.543252        -0.874876
 H        -0.504370        -0.699974         0.533075
 H         4.242871         0.865524         0.404183
 H         2.520715        -1.490271        -0.903577
 H         3.431179         0.131442        -2.780003
 H         1.691264         0.061794        -2.957332
 H         3.425282         2.419819        -2.078168
 H         1.711856         2.554402        -2.489889
 H         1.519692         2.443335         1.259858
