19
Iteration:  3228charge 0 multiplicity 1
 C        -0.027019        -0.043177        -0.067664
 C         1.382927         0.359965        -0.046188
 O         2.247956         0.223273         1.168494
 C         3.185226         0.584075         0.160039
 C         2.451149        -0.260886        -0.895382
 C         2.523250         0.334662        -2.261482
 C         2.222191         1.883228        -1.889305
 C         2.255676         1.721254        -0.358942
 O         2.175401         2.897259         0.428515
 H        -0.653171         0.621830         0.625403
 H        -0.454485        -0.094009        -1.118594
 H         0.130250        -1.020252         0.286074
 H         4.226087         0.563330         0.473370
 H         2.393944        -1.359957        -0.798701
 H         3.462071         0.256116        -2.860514
 H         1.674492        -0.131624        -2.871325
 H         2.881656         2.720908        -2.320172
 H         1.223301         2.176935        -2.123646
 H         2.311207         2.541545         1.333843
