19
Iteration:  1877charge 0 multiplicity 1
 C         0.023451         0.134919         0.101247
 C         1.411120         0.418228        -0.055600
 O         2.265342         0.045079         1.205163
 C         3.215641         0.534584         0.040441
 C         2.394283        -0.318641        -0.969163
 C         2.523364         0.428581        -2.324699
 C         2.402122         1.933741        -1.840311
 C         2.289188         1.718358        -0.337399
 O         1.920331         2.810258         0.397728
 H        -0.585984         0.843037         0.723796
 H        -0.536360         0.109141        -0.771295
 H        -0.173375        -0.871830         0.441744
 H         4.270732         0.689430         0.135827
 H         2.509808        -1.384066        -0.891293
 H         3.501510         0.164528        -2.594879
 H         1.866007         0.194873        -3.236278
 H         3.398367         2.431079        -2.001675
 H         1.580340         2.484261        -2.306662
 H         1.970203         2.598832         1.349575
