19
Iteration:  1514charge 0 multiplicity 1
 C        -0.021216         0.054820         0.102038
 C         1.445819         0.372512        -0.074870
 O         2.199915         0.097696         1.128228
 C         3.217446         0.563212         0.150853
 C         2.409780        -0.269371        -0.928572
 C         2.553834         0.402281        -2.253816
 C         2.291928         1.822904        -1.892068
 C         2.272799         1.734496        -0.359720
 O         2.073566         2.915292         0.373641
 H        -0.365470         0.867480         0.749416
 H        -0.611384         0.071403        -0.922276
 H        -0.232060        -0.937321         0.613276
 H         4.226000         0.518876         0.241124
 H         2.617060        -1.330399        -0.794061
 H         3.597572         0.403468        -2.584031
 H         1.830315         0.046401        -3.023024
 H         3.044143         2.558714        -2.307579
 H         1.333844         2.096626        -2.331930
 H         2.025328         2.474426         1.270421
