19
Iteration:   404charge 0 multiplicity 1
 C        -0.011608        -0.032023         0.027002
 C         1.401146         0.296434        -0.024561
 O         2.191152         0.238174         1.130859
 C         3.177601         0.621416         0.128754
 C         2.531320        -0.366543        -0.961550
 C         2.371729         0.394245        -2.290112
 C         2.385783         1.936805        -1.794976
 C         2.203629         1.711919        -0.388143
 O         2.148914         2.885092         0.402692
 H        -0.684214         0.549279         0.720089
 H        -0.353969         0.023287        -1.031273
 H        -0.167456        -1.088534         0.235077
 H         4.205026         0.662996         0.502500
 H         2.660202        -1.558016        -0.947008
 H         3.157919         0.145401        -2.981695
 H         1.357120         0.129141        -2.725186
 H         3.434825         2.297045        -1.882756
 H         1.728597         2.641641        -2.233834
 H         2.390563         2.630195         1.317715
