19
Iteration:  2803charge 0 multiplicity 1
 C        -0.038231         0.339875         0.103822
 C         1.479055         0.284077        -0.083868
 O         2.311342         0.101138         1.167561
 C         3.229166         0.517749         0.128618
 C         2.540893        -0.309270        -0.943498
 C         2.515260         0.385706        -2.352735
 C         2.368502         1.824357        -1.873002
 C         2.255214         1.638887        -0.347507
 O         1.783610         2.802730         0.438361
 H        -0.269228         1.316998         0.607079
 H        -0.474270         0.271805        -0.903165
 H        -0.295093        -0.501329         0.724093
 H         4.295826         0.855780         0.325545
 H         2.790872        -1.413693        -1.057117
 H         3.517612         0.482745        -2.884990
 H         1.800652        -0.008844        -3.038673
 H         3.281968         2.379260        -2.288542
 H         1.465569         2.388330        -2.247892
 H         2.046743         2.724436         1.358105
