19
Iteration:  4507charge 0 multiplicity 1
 C        -0.134113         0.049679        -0.087469
 C         1.477492         0.389532         0.025312
 O         2.274417         0.203252         1.191893
 C         3.206764         0.631258         0.005673
 C         2.534328        -0.373291        -0.887752
 C         2.454981         0.349968        -2.256564
 C         2.318223         1.889388        -1.804431
 C         2.185032         1.733994        -0.325740
 O         2.085771         2.832433         0.414860
 H        -0.828509         0.614050         0.520212
 H        -0.282670         0.382392        -1.181469
 H        -0.240894        -1.129855        -0.077548
 H         4.274213         0.533533         0.309356
 H         2.816176        -1.408287        -0.779938
 H         3.510296         0.132597        -2.732294
 H         1.635795        -0.080681        -2.871530
 H         3.082584         2.521110        -2.079673
 H         1.476704         2.594116        -2.265982
 H         2.166797         2.373433         1.296839
