19
Iteration:  4668
 C        -0.026283         0.058156        -0.159944
 C         1.451744         0.332555        -0.009573
 O         2.275870         0.156568         1.271105
 C         3.224154         0.543531         0.138146
 C         2.435072        -0.336280        -0.865149
 C         2.438133         0.447811        -2.225366
 C         2.310628         1.952680        -1.849942
 C         2.155263         1.722181        -0.415891
 O         2.147169         2.828846         0.367728
 H        -0.649762         0.309589         0.731648
 H        -0.524310         0.308349        -1.066002
 H        -0.075399        -1.118066        -0.155651
 H         4.310216         0.621494         0.241315
 H         2.422796        -1.393253        -0.731890
 H         3.424875         0.081049        -2.564997
 H         1.524094         0.170957        -2.818704
 H         3.112772         2.708403        -2.171631
 H         1.428910         2.346799        -2.459363
 H         2.282084         2.698018         1.300268
