19
Iteration:   837charge 0 multiplicity 1
 C        -0.038016         0.362625        -0.025134
 C         1.461399         0.320225        -0.061307
 O         2.296133         0.147680         1.202272
 C         3.288994         0.499779         0.160048
 C         2.574624        -0.275382        -0.967985
 C         2.577354         0.447426        -2.286486
 C         2.160035         1.865579        -1.822041
 C         2.153808         1.585791        -0.358169
 O         1.982120         2.701453         0.398708
 H        -0.236245         1.148374         0.714787
 H        -0.509564         0.670506        -0.962174
 H        -0.533569        -0.513633         0.309862
 H         4.382762         0.484538         0.417313
 H         2.687825        -1.304606        -0.832075
 H         3.637272         0.450004        -2.807740
 H         1.941514        -0.038660        -3.016960
 H         2.790886         2.600996        -2.297574
 H         1.200051         2.013641        -2.288579
 H         1.935636         2.367666         1.351471
