19
Iteration:  1764
 C        -0.062659         0.315465         0.020374
 C         1.481966         0.268969        -0.057877
 O         2.271309         0.101153         1.203160
 C         3.219434         0.560511         0.079217
 C         2.606503        -0.361040        -0.962897
 C         2.487933         0.388269        -2.251300
 C         2.295280         1.910229        -1.857158
 C         2.262034         1.703173        -0.368584
 O         1.914300         2.746615         0.388310
 H        -0.243681         0.991917         0.810185
 H        -0.545476         0.709649        -0.902960
 H        -0.477752        -0.689526         0.313500
 H         4.339750         0.757717         0.508645
 H         2.971672        -1.430175        -0.839010
 H         3.379267         0.319805        -2.927815
 H         1.598620         0.140624        -2.835227
 H         3.087058         2.684570        -2.047485
 H         1.247481         2.239268        -2.197182
 H         2.072122         2.420526         1.299336
