19
Iteration:  2909charge 0 multiplicity 1
 C        -0.060674        -0.115189        -0.052291
 C         1.327987         0.373526         0.021951
 O         2.281848         0.195960         1.274520
 C         3.086942         0.555121         0.124849
 C         2.448489        -0.272909        -0.965030
 C         2.582664         0.441414        -2.277772
 C         2.211741         1.844281        -1.832571
 C         2.202210         1.686734        -0.357384
 O         2.264780         2.927602         0.334129
 H        -0.734114         0.422247         0.612259
 H        -0.365326         0.197562        -1.073547
 H        -0.224999        -1.303357         0.055966
 H         4.115700         0.529228         0.397734
 H         2.644082        -1.337141        -0.845058
 H         3.580964         0.497062        -2.697082
 H         1.894908         0.099170        -3.152316
 H         3.083791         2.509764        -2.206125
 H         1.315654         2.293430        -2.177348
 H         2.240170         3.106948         1.280127
