19
Iteration:  1192charge 0 multiplicity 1
 C        -0.071364         0.375010         0.160525
 C         1.452645         0.325308        -0.013129
 O         2.340791         0.197912         1.179976
 C         3.253980         0.473128         0.075406
 C         2.567727        -0.394858        -1.020483
 C         2.664859         0.424588        -2.349905
 C         2.232630         1.874345        -1.830293
 C         2.213583         1.566113        -0.338882
 O         1.885370         2.752323         0.354923
 H        -0.373730         1.334197         0.706406
 H        -0.402031         0.516466        -0.829821
 H        -0.720912        -0.533035         0.439239
 H         4.218061         0.676744         0.484855
 H         2.539103        -1.459171        -0.956840
 H         3.792410         0.280312        -2.655917
 H         1.954147         0.214170        -3.128273
 H         2.710124         2.794988        -2.045512
 H         1.132879         1.979504        -2.151146
 H         1.654443         2.405105         1.246239
