19
Iteration:  2195charge 0 multiplicity 1
 C        -0.051896        -0.017473         0.070728
 C         1.443281         0.307807        -0.009000
 O         2.147860         0.158027         1.233062
 C         3.287788         0.530794         0.124263
 C         2.525797        -0.258365        -0.989405
 C         2.355295         0.500105        -2.378388
 C         2.490761         1.955176        -1.823395
 C         2.273870         1.652928        -0.400914
 O         2.011579         2.848895         0.355958
 H        -0.555183         0.614790         0.862132
 H        -0.588100         0.087663        -0.881281
 H        -0.209217        -1.040684         0.354378
 H         4.316654         0.649130         0.439956
 H         2.638037        -1.399464        -0.888517
 H         3.028393         0.161247        -3.085642
 H         1.288848         0.210729        -2.691889
 H         3.594595         2.186893        -1.945727
 H         1.989915         2.788854        -2.159701
 H         1.930523         2.724535         1.311126
