19
Iteration:  2311charge 0 multiplicity 1
 C        -0.124928         0.202468         0.041806
 C         1.396341         0.367478        -0.061399
 O         2.376713         0.069929         1.150425
 C         3.212043         0.533340         0.088153
 C         2.417635        -0.327163        -0.937221
 C         2.634988         0.410131        -2.319453
 C         2.302062         1.849261        -1.857164
 C         2.157686         1.699879        -0.338940
 O         1.976965         2.861475         0.443783
 H        -0.470505         0.802061         0.838226
 H        -0.524423         0.258624        -0.946695
 H        -0.362236        -0.816365         0.424691
 H         4.304151         0.449712         0.276839
 H         2.565396        -1.344137        -0.699146
 H         3.765514         0.289812        -2.552012
 H         2.106890         0.107760        -3.178780
 H         3.089728         2.553618        -2.098974
 H         1.385903         2.356170        -2.392607
 H         2.412045         2.757504         1.300063
