19
Iteration:  2708charge 0 multiplicity 1
 C        -0.092268        -0.089025        -0.001437
 C         1.418275         0.299384        -0.056071
 O         2.194761         0.164899         1.169623
 C         3.213151         0.630745         0.158855
 C         2.491081        -0.279387        -0.905173
 C         2.443421         0.383794        -2.428107
 C         2.389934         1.892578        -1.849944
 C         2.249050         1.682326        -0.321455
 O         2.160966         2.979144         0.435207
 H        -0.530036         0.569939         0.845147
 H        -0.519374         0.254574        -0.977117
 H        -0.252519        -1.093403         0.240957
 H         4.271973         0.696857         0.457178
 H         2.457344        -1.402016        -0.753255
 H         3.253616        -0.068139        -3.004202
 H         1.520736         0.000323        -2.858429
 H         3.223623         2.477018        -2.141214
 H         1.487848         2.473810        -2.145553
 H         1.934734         2.692223         1.367265
