19
Iteration:   860charge 0 multiplicity 1
 C        -0.080595         0.336687         0.001545
 C         1.443003         0.321808        -0.015471
 O         2.347204         0.139216         1.180410
 C         3.186521         0.600302         0.032877
 C         2.538613        -0.425186        -0.981686
 C         2.579567         0.395096        -2.284591
 C         2.256134         1.868707        -1.854643
 C         2.247224         1.661970        -0.326129
 O         1.956048         2.754121         0.519788
 H        -0.458036         1.131631         0.612746
 H        -0.376883         0.510851        -1.105572
 H        -0.558995        -0.568752         0.251489
 H         4.328968         0.745589         0.162449
 H         2.777709        -1.505051        -0.891067
 H         3.666464         0.238248        -2.769052
 H         1.984814        -0.016459        -3.051242
 H         2.932877         2.516618        -2.493203
 H         1.212495         2.174576        -2.226522
 H         1.482467         2.505907         1.322041
