19
Iteration:  3349
 C        -0.040505         0.279446         0.217146
 C         1.437694         0.322529        -0.031481
 O         2.243971         0.162594         1.123481
 C         3.143912         0.544342         0.085387
 C         2.556263        -0.386091        -1.045063
 C         2.731708         0.365944        -2.336329
 C         2.291228         1.799957        -1.935209
 C         2.150064         1.664914        -0.408372
 O         1.944693         2.862331         0.516233
 H        -0.409067         1.268028         0.687529
 H        -0.666063         0.307489        -0.693352
 H        -0.315995        -0.583067         0.786597
 H         4.216268         0.678553         0.284644
 H         2.547017        -1.432357        -0.868308
 H         3.778810         0.323438        -2.574685
 H         2.350911        -0.033444        -3.267839
 H         2.994307         2.687049        -2.311767
 H         1.335934         2.110679        -2.293958
 H         1.788257         2.324050         1.330990
