19
Iteration:  3491charge 0 multiplicity 1
 C        -0.099927         0.199856         0.247173
 C         1.376802         0.353253        -0.091156
 O         2.341296         0.058598         1.156888
 C         3.077321         0.549168         0.065348
 C         2.501718        -0.311196        -1.044477
 C         2.762199         0.336473        -2.268650
 C         2.318941         1.882789        -1.904023
 C         2.220660         1.754830        -0.355997
 O         1.913023         2.834333         0.406961
 H        -0.440671         0.888961         1.098625
 H        -0.612996         0.590091        -0.649176
 H        -0.511842        -0.787265         0.358186
 H         4.180572         0.573111         0.173235
 H         2.618974        -1.376361        -0.835645
 H         3.784493         0.279776        -2.579896
 H         2.251702        -0.035778        -3.178319
 H         3.171135         2.633865        -2.268248
 H         1.438514         2.151026        -2.424009
 H         2.040704         2.753193         1.372271
