19
Iteration:  4365
 C        -0.038449         0.212688         0.015622
 C         1.458466         0.294415         0.056737
 O         2.237603         0.121449         1.147631
 C         3.283522         0.592964         0.095906
 C         2.532038        -0.308961        -0.914952
 C         2.595594         0.435898        -2.317014
 C         2.240161         1.931487        -1.873369
 C         2.224570         1.607077        -0.350921
 O         1.984015         2.798311         0.386447
 H        -0.539243         1.044290         0.436464
 H        -0.519664         0.099450        -0.947532
 H        -0.548970        -0.666954         0.552340
 H         4.283855         0.457864         0.510550
 H         2.669220        -1.363376        -0.802153
 H         3.515639         0.032004        -2.853460
 H         1.780051         0.069587        -2.974958
 H         2.874175         2.696481        -2.207171
 H         1.180983         2.341189        -2.270002
 H         2.096917         2.529527         1.335350
