19
Iteration:  1311charge 0 multiplicity 1
 C         0.066397        -0.013679        -0.066769
 C         1.429591         0.400767        -0.051342
 O         2.238978         0.162337         1.129770
 C         3.141156         0.619722         0.142706
 C         2.468158        -0.323615        -0.888620
 C         2.327243         0.324753        -2.254005
 C         2.360571         1.830434        -1.849043
 C         2.213274         1.765522        -0.353077
 O         2.122906         2.929154         0.452582
 H        -0.553493         0.628824         0.658126
 H        -0.335386         0.066200        -1.037005
 H         0.088453        -1.118872         0.276943
 H         4.292030         0.745546         0.361167
 H         2.650228        -1.381127        -0.885086
 H         3.135960        -0.018246        -2.933050
 H         1.405349         0.142536        -2.734251
 H         3.279917         2.237324        -2.223858
 H         1.572941         2.378895        -2.416107
 H         2.480333         2.759423         1.329496
