19
Iteration:  2034charge 0 multiplicity 1
 C        -0.000717         0.016017         0.103292
 C         1.421211         0.397922        -0.109012
 O         2.236212         0.177413         1.240333
 C         3.174569         0.546440         0.113710
 C         2.393776        -0.311474        -0.990047
 C         2.429155         0.518726        -2.346668
 C         2.483883         1.897318        -1.861862
 C         2.219358         1.649354        -0.313020
 O         2.018750         2.806814         0.413135
 H        -0.486135         0.790394         0.676932
 H        -0.542337        -0.026973        -0.930943
 H        -0.072088        -1.020674         0.407324
 H         4.234122         0.424809         0.226367
 H         2.720713        -1.437663        -1.061606
 H         3.362882         0.335143        -3.002659
 H         1.518388         0.241387        -2.925270
 H         3.514204         2.360005        -2.044398
 H         1.741847         2.560027        -2.386873
 H         2.353475         2.601165         1.303115
