19
Iteration:   127charge 0 multiplicity 1
 C        -0.127738         0.305166         0.122531
 C         1.422305         0.295949        -0.014436
 O         2.334613         0.225955         1.179318
 C         3.309807         0.495919         0.156265
 C         2.480514        -0.363232        -0.962678
 C         2.631305         0.456845        -2.325156
 C         2.365650         1.900063        -1.920221
 C         2.224351         1.632712        -0.381777
 O         1.859591         2.694729         0.378634
 H        -0.466748         1.098370         0.909961
 H        -0.789748         0.420881        -0.862616
 H        -0.635931        -0.626527         0.518820
 H         4.387615         0.479931         0.454050
 H         2.542002        -1.430675        -1.020602
 H         3.736922         0.257799        -2.666680
 H         2.081319         0.156449        -3.217007
 H         3.033441         2.757603        -2.315844
 H         1.311873         2.194656        -2.261988
 H         1.904756         2.419098         1.309014
