19
Iteration:  4744
 C        -0.125579         0.265171         0.169096
 C         1.439268         0.338160        -0.035990
 O         2.223567         0.166117         1.166181
 C         3.255599         0.508851         0.049720
 C         2.550149        -0.368161        -1.039730
 C         2.716789         0.425292        -2.357936
 C         2.341898         1.861296        -1.827166
 C         2.240598         1.662522        -0.380444
 O         1.850322         2.764782         0.444138
 H        -0.476826         1.154235         0.803218
 H        -0.642258         0.501837        -0.766548
 H        -0.471805        -0.639296         0.861508
 H         4.363254         0.660399         0.135942
 H         2.620663        -1.449049        -0.983724
 H         3.659594         0.100191        -2.872207
 H         1.838499         0.132397        -3.009670
 H         3.312171         2.551585        -1.969669
 H         1.472158         2.231379        -2.444699
 H         1.998968         2.682715         1.417308
