19
Iteration:  3043charge 0 multiplicity 1
 C        -0.079870        -0.045854         0.049084
 C         1.368284         0.218712        -0.059786
 O         2.222048         0.183363         1.187780
 C         3.198225         0.568396         0.172846
 C         2.558767        -0.305639        -0.890725
 C         2.570750         0.450216        -2.311510
 C         2.179867         1.930994        -1.860026
 C         2.211668         1.696878        -0.372022
 O         2.222422         2.930008         0.320263
 H        -0.584811         0.781928         0.699331
 H        -0.681737         0.083045        -0.894657
 H        -0.453187        -0.937336         0.444768
 H         4.259602         0.484525         0.452819
 H         2.621832        -1.437727        -0.735391
 H         3.601643         0.430593        -2.769378
 H         1.846159         0.048677        -3.056959
 H         3.107398         2.589437        -2.031289
 H         1.280956         2.458744        -2.219091
 H         1.692073         2.666136         1.113646
