19
Iteration:  2540charge 0 multiplicity 1
 C        -0.038388        -0.027215         0.002037
 C         1.386897         0.324252        -0.090317
 O         2.220411         0.158178         1.181594
 C         3.122266         0.514613         0.151534
 C         2.547772        -0.298882        -0.938230
 C         2.364141         0.413153        -2.210797
 C         2.489911         1.960741        -1.854995
 C         2.201292         1.743726        -0.358975
 O         2.103233         2.900963         0.346791
 H        -0.710162         0.469887         0.720300
 H        -0.421314         0.151025        -1.011082
 H        -0.018762        -1.149251         0.243080
 H         4.198084         0.596134         0.462217
 H         2.864994        -1.317721        -0.891413
 H         3.014832        -0.044679        -3.046978
 H         1.371589         0.238731        -2.524592
 H         3.425203         2.408694        -1.874833
 H         1.750363         2.561066        -2.370952
 H         2.344145         2.724532         1.304072
