19
Iteration:  1119charge 0 multiplicity 1
 C        -0.006846        -0.164421        -0.023766
 C         1.373393         0.372959        -0.002911
 O         2.252489         0.290529         1.205125
 C         3.184706         0.498401         0.197096
 C         2.378639        -0.334751        -0.883992
 C         2.383342         0.472241        -2.240502
 C         2.435793         1.976505        -1.862726
 C         2.248582         1.707186        -0.405832
 O         2.166632         2.852985         0.322509
 H        -0.752656         0.305296         0.647976
 H        -0.421901        -0.054919        -1.072836
 H        -0.038851        -1.213011         0.143007
 H         4.223609         0.680796         0.402359
 H         2.562579        -1.425409        -1.135975
 H         3.149409         0.278507        -2.959244
 H         1.364315         0.222138        -2.765352
 H         3.419369         2.524467        -2.137839
 H         1.658144         2.693613        -2.270031
 H         2.048414         2.506272         1.250833
