19
Iteration:  2865charge 0 multiplicity 1
 C        -0.027732         0.072987         0.047232
 C         1.361454         0.402760        -0.110483
 O         2.240983         0.154389         1.157354
 C         3.162437         0.581903         0.198470
 C         2.551329        -0.273986        -0.926335
 C         2.493710         0.372789        -2.387213
 C         2.358285         1.828094        -1.846340
 C         2.230807         1.731326        -0.371858
 O         2.075079         2.871686         0.443438
 H        -0.524903         0.499711         0.888539
 H        -0.670208         0.263663        -0.819772
 H        -0.051398        -1.072218         0.366194
 H         4.218716         0.611780         0.307508
 H         2.810609        -1.299087        -0.735536
 H         3.378020         0.082319        -2.903998
 H         1.618816        -0.188977        -2.866557
 H         3.123589         2.582415        -2.246545
 H         1.451273         2.185646        -2.286978
 H         1.912785         2.479380         1.310919
