19
Iteration:  3439
 C        -0.037250        -0.021809        -0.061039
 C         1.461864         0.370312        -0.066871
 O         2.181124         0.215587         1.216784
 C         3.274354         0.587018         0.145936
 C         2.484049        -0.325265        -0.855583
 C         2.361568         0.374328        -2.299631
 C         2.443977         1.865352        -1.919153
 C         2.312384         1.744282        -0.370138
 O         2.024777         2.896256         0.434694
 H        -0.527599         0.470857         0.758984
 H        -0.657002         0.050852        -0.930813
 H         0.030205        -1.167969         0.131057
 H         4.384594         0.370287         0.307257
 H         2.390580        -1.438919        -0.786799
 H         3.093026         0.031231        -3.036874
 H         1.340575         0.305388        -2.678845
 H         3.290722         2.530714        -2.247262
 H         1.588585         2.414740        -2.344040
 H         2.048665         2.665689         1.393444
