19
Iteration:  2776
 C        -0.072468         0.181066         0.058719
 C         1.437832         0.366234        -0.079618
 O         2.241988         0.101535         1.155291
 C         3.247773         0.549597         0.109912
 C         2.539349        -0.295558        -0.883548
 C         2.620150         0.373339        -2.291982
 C         2.248861         1.917039        -1.879118
 C         2.177472         1.646141        -0.368939
 O         2.068387         2.804825         0.411492
 H        -0.552184         1.017696         0.569997
 H        -0.502546         0.069532        -0.942790
 H        -0.206117        -0.692005         0.738464
 H         4.203964         0.925168         0.367895
 H         2.575690        -1.351351        -0.894699
 H         3.454649         0.338278        -2.934211
 H         1.683587         0.065384        -2.842646
 H         2.912258         2.756306        -2.160099
 H         1.265138         2.161876        -2.331402
 H         1.704745         2.492061         1.244865
