19
Iteration:  2475charge 0 multiplicity 1
 C        -0.098085         0.308293         0.108686
 C         1.416206         0.364159        -0.027161
 O         2.290864         0.085163         1.150526
 C         3.268050         0.593264         0.073811
 C         2.516918        -0.346009        -0.983674
 C         2.609448         0.400791        -2.247242
 C         2.287978         1.902656        -1.829892
 C         2.178718         1.584713        -0.363675
 O         1.984685         2.760301         0.381120
 H        -0.562224         0.993916         0.792904
 H        -0.595629         0.508884        -0.831305
 H        -0.442431        -0.672696         0.451144
 H         4.362920         0.746559         0.248475
 H         2.843185        -1.334524        -1.144282
 H         3.699512         0.237526        -2.562440
 H         2.033831         0.109048        -3.044437
 H         3.158226         2.472126        -2.001572
 H         1.464009         2.303504        -2.423044
 H         1.365782         2.551007         1.108053
