19
Iteration:  1376charge 0 multiplicity 1
 C        -0.058654         0.352604         0.220550
 C         1.419921         0.454063         0.000796
 O         2.291722         0.018951         1.119964
 C         3.300583         0.544848         0.108903
 C         2.455033        -0.371629        -0.956860
 C         2.739241         0.390928        -2.334414
 C         2.249981         1.823996        -1.984388
 C         2.223821         1.679501        -0.407016
 O         1.851841         2.792231         0.396724
 H        -0.426917         1.098411         0.956981
 H        -0.653646         0.492483        -0.582518
 H        -0.279109        -0.646256         0.702733
 H         4.493837         0.624966         0.353611
 H         2.489826        -1.398303        -0.596369
 H         3.772049         0.554464        -2.527859
 H         2.233478        -0.100151        -3.100848
 H         2.823625         2.673469        -2.346120
 H         1.210983         2.087846        -2.255572
 H         1.962441         2.280829         1.219268
