19
Iteration:  4915charge 0 multiplicity 1
 C        -0.083828         0.319415         0.174811
 C         1.414282         0.290793        -0.090480
 O         2.314308         0.045287         1.098150
 C         3.216529         0.559318         0.138170
 C         2.562987        -0.277614        -0.960295
 C         2.607749         0.382007        -2.273517
 C         2.384828         1.908796        -1.879803
 C         2.259684         1.648322        -0.387467
 O         1.826282         2.763817         0.403770
 H        -0.263658         0.960639         1.092537
 H        -0.594017         0.831554        -0.618123
 H        -0.565217        -0.659126         0.210980
 H         4.351408         0.781904         0.287765
 H         2.600401        -1.413463        -0.890777
 H         3.560232         0.208870        -2.858642
 H         1.811399         0.033840        -2.956526
 H         3.291694         2.516698        -2.178625
 H         1.408165         2.403267        -2.259845
 H         1.688375         2.552219         1.349001
