19
Iteration:  1811charge 0 multiplicity 1
 C        -0.075577        -0.078062        -0.049676
 C         1.378282         0.429215        -0.082394
 O         2.254533         0.189030         1.184319
 C         3.204822         0.514674         0.104635
 C         2.405233        -0.305221        -0.924441
 C         2.484638         0.428131        -2.247845
 C         2.299556         1.926609        -1.872103
 C         2.311511         1.703611        -0.349851
 O         2.149750         2.901244         0.464291
 H        -0.776078         0.543742         0.563859
 H        -0.268694         0.025012        -1.067710
 H        -0.021522        -1.154142         0.249953
 H         4.275878         0.525176         0.339024
 H         2.409485        -1.397877        -0.912682
 H         3.371107         0.360523        -2.808868
 H         1.617173        -0.093789        -2.829675
 H         3.125203         2.677714        -2.226085
 H         1.264181         2.237968        -2.137848
 H         2.321863         2.556118         1.384450
