19
Iteration:  4979
 C        -0.031718         0.061168        -0.048547
 C         1.384935         0.327699        -0.036007
 O         2.162586         0.112369         1.206578
 C         3.160555         0.636881         0.125099
 C         2.525774        -0.230826        -0.932414
 C         2.509093         0.417250        -2.349128
 C         2.268471         1.860016        -1.910255
 C         2.246947         1.691386        -0.280444
 O         2.194422         2.828144         0.473732
 H        -0.714805         0.763573         0.437737
 H        -0.296446        -0.018472        -1.093327
 H        -0.134227        -0.811706         0.524381
 H         4.224805         0.910264         0.314610
 H         2.699135        -1.374868        -0.868416
 H         3.368000         0.305973        -3.039093
 H         1.726758        -0.056504        -2.939547
 H         3.011106         2.551161        -2.178949
 H         1.285343         2.314893        -2.340104
 H         2.236901         2.350069         1.353336
