19
Iteration:   761
 C        -0.054734        -0.138792         0.084931
 C         1.367460         0.249450        -0.098526
 O         2.198174         0.279271         1.212931
 C         3.161133         0.531741         0.141448
 C         2.436735        -0.298797        -0.984536
 C         2.412211         0.512573        -2.342886
 C         2.505806         1.905895        -1.806074
 C         2.273141         1.659444        -0.363327
 O         2.081114         2.918838         0.366351
 H        -0.425075         0.543441         0.887961
 H        -0.611313         0.094181        -0.845681
 H        -0.239935        -1.165611         0.382439
 H         4.244635         0.507254         0.448824
 H         2.604642        -1.318693        -1.061369
 H         3.313255         0.269763        -2.994202
 H         1.567019         0.261414        -2.886390
 H         3.526799         2.298994        -1.909545
 H         1.896178         2.658508        -2.303188
 H         2.314882         2.772253         1.308007
