19
Iteration:  1974charge 0 multiplicity 1
 C        -0.049356         0.025733        -0.026815
 C         1.383204         0.400000        -0.014210
 O         2.296811         0.141353         1.192659
 C         3.222911         0.553975         0.178368
 C         2.354876        -0.305959        -1.050933
 C         2.522181         0.433374        -2.255498
 C         2.282255         1.968257        -1.821119
 C         2.247638         1.619480        -0.328417
 O         2.150726         2.828712         0.347961
 H        -0.630930         0.639768         0.696570
 H        -0.426030         0.265183        -0.995801
 H        -0.303608        -1.038059         0.231375
 H         4.338540         0.534577         0.403276
 H         2.527166        -1.317266        -0.811553
 H         3.490134         0.293369        -2.664448
 H         1.833646         0.229384        -3.093690
 H         3.034563         2.718439        -1.972886
 H         1.276282         2.324032        -2.073777
 H         2.025567         2.634675         1.321564
