19
Iteration:  4174charge 0 multiplicity 1
 C        -0.089214         0.160352        -0.055219
 C         1.363219         0.353167         0.102713
 O         2.319515         0.192670         1.213987
 C         3.224540         0.541151         0.028884
 C         2.530436        -0.338196        -1.001846
 C         2.539982         0.380060        -2.335428
 C         2.285459         1.945932        -1.842394
 C         2.248036         1.659131        -0.338828
 O         2.006699         2.786312         0.480493
 H        -0.749976         0.988763         0.482484
 H        -0.284222         0.050765        -1.129081
 H        -0.362944        -0.756823         0.300975
 H         4.323166         0.502852         0.221087
 H         2.816372        -1.428140        -0.834969
 H         3.366824         0.234287        -3.049152
 H         1.624042         0.065098        -2.909405
 H         3.182051         2.646342        -2.129996
 H         1.382701         2.394510        -2.272389
 H         2.139766         2.364621         1.390339
