19
Iteration:  3354charge 0 multiplicity 1
 C        -0.037819         0.277150         0.170435
 C         1.443247         0.379732        -0.059828
 O         2.223201         0.141809         1.143316
 C         3.164980         0.533042         0.113413
 C         2.537956        -0.363453        -1.045750
 C         2.733198         0.343117        -2.321324
 C         2.253371         1.830051        -1.956978
 C         2.194589         1.663660        -0.397173
 O         1.954166         2.863794         0.513937
 H        -0.377604         1.109548         0.745981
 H        -0.565677         0.192951        -0.784374
 H        -0.149967        -0.617275         0.920806
 H         4.218481         0.898901         0.269135
 H         2.482873        -1.503050        -1.073507
 H         3.834971         0.138200        -2.590652
 H         2.246338        -0.167831        -3.193103
 H         2.911988         2.580487        -2.168047
 H         1.157712         2.079206        -2.167892
 H         1.812288         2.384926         1.358882
