19
Iteration:  3556charge 0 multiplicity 1
 C        -0.047858         0.147005        -0.070349
 C         1.428366         0.380649        -0.015031
 O         2.293389         0.103958         1.191511
 C         3.215619         0.687252         0.066282
 C         2.556575        -0.286702        -0.921435
 C         2.498042         0.300376        -2.329250
 C         2.288230         1.868475        -1.844326
 C         2.210795         1.689782        -0.276662
 O         2.027540         2.793229         0.478493
 H        -0.451445         1.168349         0.316822
 H        -0.255580         0.149879        -1.156109
 H        -0.516611        -0.730198         0.367803
 H         4.275836         0.771493         0.193859
 H         2.494728        -1.380005        -0.942592
 H         3.390029         0.040642        -2.966322
 H         1.569985        -0.104252        -2.848959
 H         3.154562         2.559398        -2.216023
 H         1.466300         2.345911        -2.309776
 H         1.830123         2.523686         1.407867
