19
Iteration:  4998
 C        -0.069487        -0.072249        -0.073633
 C         1.435138         0.394157        -0.060299
 O         2.202914         0.201814         1.158760
 C         3.194574         0.535576         0.158467
 C         2.529514        -0.334890        -0.973216
 C         2.470176         0.375808        -2.274575
 C         2.257831         1.946088        -1.830580
 C         2.158703         1.726298        -0.363467
 O         2.240665         2.904946         0.485892
 H        -0.706105         0.666693         0.411895
 H        -0.375445        -0.237883        -1.204374
 H        -0.129724        -0.948362         0.577800
 H         4.130826         0.419167         0.527708
 H         2.454517        -1.440124        -0.908826
 H         3.396917         0.322426        -2.826452
 H         1.657366         0.295238        -3.009197
 H         3.094358         2.494482        -2.094858
 H         1.421559         2.422147        -2.347853
 H         2.132074         2.598938         1.439292
