19
Iteration:   658charge 0 multiplicity 1
 C        -0.063035         0.321833         0.080889
 C         1.440855         0.344102        -0.126969
 O         2.269001         0.036260         1.109418
 C         3.269873         0.551391         0.104071
 C         2.549929        -0.335271        -0.896427
 C         2.685356         0.365456        -2.399825
 C         2.205038         1.829821        -1.857050
 C         2.208264         1.704266        -0.309692
 O         1.929366         2.843622         0.512644
 H        -0.299860         1.206173         0.622178
 H        -0.512923         0.491503        -0.897714
 H        -0.469638        -0.600970         0.520993
 H         4.340918         0.564079         0.291025
 H         2.556080        -1.541475        -0.698484
 H         3.617227         0.214144        -2.868646
 H         1.777099        -0.007525        -3.088498
 H         2.769388         2.661776        -2.263881
 H         1.215432         1.835480        -2.300514
 H         2.163833         2.858832         1.460700
