19
Iteration:   500charge 0 multiplicity 1
 C        -0.122366         0.353221         0.074178
 C         1.384667         0.367548        -0.063410
 O         2.248961         0.123784         1.160530
 C         3.313457         0.632368        -0.016743
 C         2.561695        -0.303313        -0.982820
 C         2.696728         0.303239        -2.297680
 C         2.224424         1.813736        -1.869487
 C         2.165572         1.666946        -0.348255
 O         1.997817         2.728147         0.525127
 H        -0.433345         1.131923         0.806876
 H        -0.634047         0.441010        -0.840037
 H        -0.445398        -0.581149         0.493781
 H         4.389504         0.869374         0.079349
 H         2.754232        -1.314288        -0.850602
 H         3.704857         0.220151        -2.837194
 H         1.947673        -0.159438        -2.883082
 H         2.875105         2.686115        -2.199976
 H         1.170282         1.967445        -2.188816
 H         1.919433         2.243175         1.369640
