19
Iteration:  3585charge 0 multiplicity 1
 C        -0.010924        -0.070294        -0.129226
 C         1.406642         0.424161        -0.093780
 O         2.301299         0.260567         1.222500
 C         3.243500         0.547405         0.175449
 C         2.475651        -0.353474        -0.920900
 C         2.323370         0.415580        -2.279960
 C         2.388851         1.938661        -1.852559
 C         2.268846         1.730334        -0.321245
 O         2.047784         2.812290         0.463068
 H        -0.580812         0.763043         0.325382
 H        -0.425227        -0.205633        -1.179323
 H        -0.186801        -0.986407         0.357283
 H         4.300365         0.539110         0.450248
 H         2.249710        -1.415761        -0.999187
 H         3.135621         0.107981        -3.023120
 H         1.478015         0.057381        -2.889081
 H         3.340604         2.275919        -2.072853
 H         1.593614         2.581781        -2.398808
 H         2.247406         2.679633         1.403732
