19
Iteration:  4274
 C        -0.070623         0.074139         0.110931
 C         1.369366         0.349221        -0.043128
 O         2.246783         0.127212         1.143503
 C         3.184706         0.582379         0.100763
 C         2.503582        -0.271512        -0.997359
 C         2.536515         0.371686        -2.347277
 C         2.421022         1.834889        -1.945120
 C         2.253170         1.752068        -0.343925
 O         2.011715         2.890644         0.487361
 H        -0.602607         0.400038         1.090182
 H        -0.618047         0.150481        -0.804502
 H        -0.137095        -0.996454         0.362535
 H         4.177490         0.707925         0.523046
 H         2.583333        -1.388490        -0.993664
 H         3.512153         0.170528        -2.881220
 H         1.686407         0.088828        -2.990821
 H         3.339396         2.454921        -2.081076
 H         1.506367         2.463366        -2.272265
 H         1.929909         2.498065         1.401519
