19
Iteration:  1362
 C         0.014339         0.299242         0.185059
 C         1.462279         0.362438        -0.048949
 O         2.278572         0.113892         1.169694
 C         3.207878         0.542379         0.006500
 C         2.442934        -0.286713        -0.958479
 C         2.693551         0.374890        -2.255612
 C         2.224258         1.815853        -1.860429
 C         2.234504         1.671460        -0.379917
 O         1.913031         2.778999         0.380324
 H        -0.245846         1.079114         0.821150
 H        -0.475060         0.446799        -0.796593
 H        -0.259070        -0.665415         0.563632
 H         4.278773         0.516266         0.174921
 H         2.517006        -1.356961        -1.004842
 H         3.713411         0.172842        -2.500903
 H         2.155514         0.046991        -3.204887
 H         2.951800         2.624672        -2.231071
 H         1.260351         1.971896        -2.301992
 H         1.565090         2.663743         1.291021
