19
Iteration:  2641charge 0 multiplicity 1
 C        -0.047751         0.318719         0.105552
 C         1.412189         0.309244        -0.064414
 O         2.314769         0.095687         1.109724
 C         3.259646         0.497197         0.077969
 C         2.547625        -0.334384        -0.936228
 C         2.622629         0.325952        -2.295611
 C         2.333804         1.933135        -1.911944
 C         2.140702         1.679560        -0.355161
 O         1.822873         2.793490         0.480023
 H        -0.292928         1.154791         0.882574
 H        -0.522176         0.605656        -0.881229
 H        -0.495880        -0.584062         0.499194
 H         4.381474         0.385419         0.254959
 H         2.623631        -1.469825        -0.826382
 H         3.672028         0.268961        -2.756570
 H         1.975876        -0.108659        -3.035383
 H         3.231409         2.540605        -1.996133
 H         1.481272         2.490450        -2.386069
 H         2.393697         2.872871         1.235276
