19
Iteration:  2740charge 0 multiplicity 1
 C        -0.028481        -0.069105        -0.015446
 C         1.325064         0.349495         0.027247
 O         2.202396         0.229370         1.188664
 C         3.222002         0.509396         0.061287
 C         2.411120        -0.308539        -0.907337
 C         2.594438         0.437257        -2.263778
 C         2.286635         1.946202        -1.893888
 C         2.212513         1.714180        -0.383537
 O         2.193985         2.881412         0.424494
 H        -0.782088         0.565045         0.584175
 H        -0.389504        -0.096235        -1.066556
 H        -0.174846        -1.079158         0.201570
 H         4.316425         0.726742         0.207773
 H         2.275603        -1.423309        -0.717781
 H         3.586329         0.121048        -2.751653
 H         1.816529         0.082262        -2.938195
 H         2.893782         2.714348        -2.167132
 H         1.229626         2.187422        -2.087790
 H         2.495510         2.634236         1.301959
