19
Iteration:  4592charge 0 multiplicity 1
 C        -0.106160         0.226598         0.156436
 C         1.398379         0.346593        -0.077975
 O         2.374736         0.139435         1.208945
 C         3.222724         0.494790         0.056307
 C         2.432205        -0.372511        -0.981888
 C         2.654808         0.482520        -2.379066
 C         2.399535         1.870852        -1.785827
 C         2.173707         1.630094        -0.351500
 O         1.897691         2.798259         0.346249
 H        -0.522591         1.188999         0.523590
 H        -0.690610         0.062048        -0.748476
 H        -0.619698        -0.569783         0.819396
 H         4.282583         0.612229         0.302580
 H         2.604203        -1.414297        -0.951159
 H         3.720769         0.211678        -2.691467
 H         2.103579         0.036570        -3.231652
 H         3.247072         2.605857        -1.863536
 H         1.456774         2.422175        -2.144207
 H         1.842701         2.832175         1.329104
