19
Iteration:  1573charge 0 multiplicity 1
 C         0.049789         0.327786         0.183339
 C         1.448333         0.344033        -0.057982
 O         2.250312         0.087059         1.157922
 C         3.147239         0.586129         0.131800
 C         2.531472        -0.361342        -0.951259
 C         2.629508         0.335942        -2.300562
 C         2.303233         1.889635        -1.902059
 C         2.191549         1.674917        -0.473289
 O         1.917717         2.746692         0.403999
 H        -0.238543         1.142734         0.937820
 H        -0.525372         0.703869        -0.584508
 H        -0.411220        -0.614867         0.531445
 H         4.283306         0.844681         0.364772
 H         2.660892        -1.448742        -0.826339
 H         3.550769         0.422080        -2.851903
 H         1.951966        -0.023708        -3.131092
 H         3.171747         2.548306        -2.064466
 H         1.365574         2.343676        -2.318715
 H         1.772301         2.311557         1.257821
