19
Iteration:  3858charge 0 multiplicity 1
 C        -0.049652         0.341369        -0.021285
 C         1.459775         0.407295        -0.096946
 O         2.353876        -0.007678         1.181750
 C         3.279159         0.552423         0.147389
 C         2.576981        -0.287237        -0.960774
 C         2.568531         0.419900        -2.301707
 C         2.184061         1.838900        -1.880591
 C         2.250986         1.768319        -0.381149
 O         1.892686         2.697650         0.518904
 H        -0.390477         1.010177         0.848461
 H        -0.425214         0.891119        -0.928788
 H        -0.496033        -0.580596         0.091137
 H         4.350948         0.569964         0.437829
 H         2.635411        -1.382550        -0.742682
 H         3.538954         0.289036        -2.792634
 H         1.889826        -0.032655        -2.939434
 H         2.791192         2.430091        -2.460881
 H         1.177657         2.219818        -2.224290
 H         1.635322         2.191455         1.314083
