19
Iteration:  4113
 C        -0.086084        -0.051413         0.117226
 C         1.359793         0.341590         0.000594
 O         2.197685         0.046886         1.106346
 C         3.167397         0.545733         0.138161
 C         2.545528        -0.264809        -0.972674
 C         2.570695         0.497631        -2.260671
 C         2.391547         1.948934        -1.922607
 C         2.137677         1.693523        -0.382116
 O         2.177901         2.901171         0.400081
 H        -0.501600         0.496648         0.970938
 H        -0.747715         0.169494        -0.729928
 H        -0.159331        -1.190755         0.563210
 H         4.168636         0.622360         0.518270
 H         2.505433        -1.337114        -0.972791
 H         3.313701         0.375793        -3.089432
 H         1.610569         0.294232        -2.766532
 H         3.384444         2.373276        -2.006381
 H         1.721871         2.679831        -2.484261
 H         1.547618         2.955089         1.144902
