19
Iteration:  3197
 C        -0.085664         0.171645         0.133525
 C         1.419307         0.264856         0.024606
 O         2.230092         0.141678         1.141132
 C         3.179474         0.590239         0.058105
 C         2.544236        -0.335996        -0.953282
 C         2.674105         0.391428        -2.342525
 C         2.251904         1.892815        -1.916233
 C         2.183758         1.705225        -0.358588
 O         2.069674         2.852905         0.410881
 H        -0.607343         1.011274         0.710987
 H        -0.567155        -0.187742        -0.789549
 H        -0.211850        -0.682098         0.767597
 H         4.245208         0.615675         0.356435
 H         2.626344        -1.402535        -0.931525
 H         3.735687         0.389165        -2.709412
 H         1.947377        -0.160566        -2.947319
 H         2.969412         2.658661        -2.223244
 H         1.331076         2.232094        -2.188502
 H         1.618338         2.595524         1.240522
