19
Iteration:  4392charge 0 multiplicity 1
 C        -0.002193         0.278253         0.137827
 C         1.404840         0.361234        -0.152924
 O         2.308536         0.214491         1.148330
 C         3.140548         0.533836         0.139829
 C         2.588329        -0.383353        -1.015750
 C         2.657168         0.438908        -2.330207
 C         2.240428         1.870386        -1.860142
 C         2.232602         1.610705        -0.347365
 O         1.912024         2.751603         0.435686
 H        -0.487207         1.038166         0.811567
 H        -0.770321         0.165901        -0.655025
 H        -0.211663        -0.616061         0.652837
 H         4.187599         0.543243         0.496125
 H         2.577963        -1.503887        -0.818735
 H         3.676944         0.342251        -2.617105
 H         1.939308         0.112180        -3.120013
 H         3.197102         2.444428        -2.188445
 H         1.371981         2.258032        -2.242368
 H         1.735354         2.382836         1.344986
