19
Iteration:  3635charge 0 multiplicity 1
 C        -0.081408         0.019099         0.144603
 C         1.316018         0.350419        -0.151771
 O         2.272925         0.038554         1.143349
 C         3.104329         0.571926         0.137722
 C         2.453034        -0.235958        -0.978646
 C         2.630273         0.365721        -2.356178
 C         2.384980         1.886077        -1.809395
 C         2.196009         1.779780        -0.349325
 O         2.081389         2.952788         0.410788
 H        -0.420921         0.550108         1.007048
 H        -0.771353         0.126555        -0.673241
 H        -0.007875        -1.139533         0.367797
 H         4.224539         0.653697         0.367305
 H         2.758773        -1.283889        -0.860172
 H         3.541473        -0.017705        -2.757637
 H         1.837255         0.201030        -3.140849
 H         3.321518         2.574045        -1.940722
 H         1.496965         2.230717        -2.326123
 H         2.193735         2.548426         1.311312
