19
Iteration:  1167charge 0 multiplicity 1
 C        -0.009383         0.244899         0.046437
 C         1.480551         0.385264        -0.078356
 O         2.299546         0.054485         1.156203
 C         3.162987         0.591477         0.098323
 C         2.557716        -0.276667        -0.932793
 C         2.518806         0.338183        -2.244328
 C         2.239056         1.814268        -1.936186
 C         2.233289         1.701700        -0.342424
 O         1.962739         2.833227         0.446689
 H        -0.436709         1.029711         0.677176
 H        -0.541250         0.298154        -1.005272
 H        -0.396102        -0.792607         0.349655
 H         4.301986         0.587554         0.387830
 H         2.579747        -1.350923        -0.767963
 H         3.523105         0.284107        -2.614462
 H         1.807820         0.007589        -2.919688
 H         3.029473         2.430966        -2.319802
 H         1.338577         2.312407        -2.199548
 H         2.285923         2.541950         1.306720
