19
Iteration:   456charge 0 multiplicity 1
 C         0.021145         0.195308         0.089854
 C         1.440168         0.388717        -0.006458
 O         2.226496         0.119854         1.165173
 C         3.237765         0.478714         0.011644
 C         2.478873        -0.322409        -0.969259
 C         2.576608         0.424299        -2.282720
 C         2.339436         1.844722        -1.828485
 C         2.257908         1.662596        -0.308250
 O         1.922194         2.869690         0.355648
 H        -0.373441         0.914961         0.845824
 H        -0.477411         0.281375        -0.809046
 H        -0.237479        -0.801309         0.455226
 H         4.309054         0.368972         0.225594
 H         2.452450        -1.364559        -0.915649
 H         3.582833         0.161285        -2.799857
 H         1.799646         0.137700        -2.915591
 H         3.170859         2.590489        -2.082265
 H         1.346607         2.134221        -2.247168
 H         1.710183         2.824816         1.300526
