19
Iteration:  2522charge 0 multiplicity 1
 C        -0.006520        -0.016882         0.004139
 C         1.464109         0.389962        -0.061996
 O         2.136265         0.156378         1.192555
 C         3.281923         0.665813         0.174494
 C         2.450285        -0.292610        -0.920894
 C         2.374680         0.456454        -2.386579
 C         2.510181         1.851428        -1.850392
 C         2.303246         1.657400        -0.342227
 O         1.972745         2.812319         0.394920
 H        -0.528128         0.517874         0.894813
 H        -0.735011         0.194017        -0.771265
 H        -0.135164        -0.988678         0.358992
 H         4.320360         0.725969         0.572355
 H         2.271260        -1.402389        -0.792382
 H         3.128671         0.308815        -3.149779
 H         1.380480         0.186214        -2.815477
 H         3.592471         2.139227        -2.141248
 H         1.743327         2.579499        -2.280436
 H         2.565030         2.846191         1.193829
