19
Iteration:  4333charge 0 multiplicity 1
 C        -0.095066         0.043634        -0.159804
 C         1.397573         0.337257        -0.074689
 O         2.374695         0.133875         1.281835
 C         3.233184         0.604624         0.103453
 C         2.448320        -0.246504        -0.912093
 C         2.445645         0.323780        -2.338182
 C         2.316033         1.870931        -1.867723
 C         2.220086         1.673125        -0.297650
 O         2.065001         2.928305         0.474030
 H        -0.494645         0.712200         0.508730
 H        -0.572011         0.030334        -1.178787
 H         0.019461        -0.981869         0.310797
 H         4.301088         0.623589         0.370200
 H         2.439048        -1.313205        -0.788688
 H         3.338372        -0.016459        -2.904024
 H         1.570093         0.155635        -3.006084
 H         3.195442         2.476524        -2.054267
 H         1.432993         2.464578        -2.332915
 H         2.035330         2.719356         1.416612
