19
Iteration:    34
 C        -0.062970        -0.130242        -0.061709
 C         1.317653         0.402676        -0.023137
 O         2.307102         0.251796         1.180642
 C         3.154716         0.638657         0.135078
 C         2.416450        -0.273776        -0.881638
 C         2.425770         0.346178        -2.291017
 C         2.375137         1.868914        -1.879811
 C         2.252445         1.753550        -0.360606
 O         2.162707         2.877207         0.439477
 H        -0.814354         0.279399         0.560031
 H        -0.468388        -0.075514        -1.022351
 H        -0.077391        -1.194173         0.133432
 H         4.225814         0.620847         0.285628
 H         2.650189        -1.337310        -0.758383
 H         3.432459         0.264804        -2.646639
 H         1.767859        -0.072054        -3.068484
 H         3.322431         2.267853        -2.191648
 H         1.596517         2.475794        -2.377702
 H         2.183656         2.590955         1.391680
