19
Iteration:  1659charge 0 multiplicity 1
 C        -0.086831        -0.083821        -0.046707
 C         1.408339         0.349424        -0.121464
 O         2.183398         0.188140         1.109484
 C         3.197798         0.583099         0.197234
 C         2.452322        -0.327255        -0.884138
 C         2.420886         0.379785        -2.203479
 C         2.283243         1.879972        -1.879412
 C         2.326078         1.768763        -0.388368
 O         2.226444         2.939703         0.443991
 H        -0.654284         0.588020         0.763850
 H        -0.557339        -0.184558        -1.016940
 H         0.140335        -1.136408         0.401290
 H         4.234284         0.556594         0.473585
 H         2.611820        -1.419154        -0.910092
 H         3.328354         0.301454        -2.792989
 H         1.591329         0.111484        -2.960641
 H         2.939380         2.595794        -2.375007
 H         1.366764         2.435224        -2.053297
 H         2.308742         2.657723         1.398690
