19
Iteration:  4190charge 0 multiplicity 1
 C        -0.078134         0.229881        -0.021412
 C         1.481195         0.317585        -0.151828
 O         2.334766         0.145250         1.175162
 C         3.257116         0.618270         0.128840
 C         2.516155        -0.314438        -0.926675
 C         2.496037         0.384010        -2.320368
 C         2.245941         1.802905        -1.892773
 C         2.196768         1.694085        -0.312685
 O         2.036470         2.765926         0.523719
 H        -0.425360         1.128607         0.378450
 H        -0.640891         0.420164        -0.961608
 H        -0.530432        -0.769786         0.415751
 H         4.300109         0.819095         0.359472
 H         2.612261        -1.373625        -0.960000
 H         3.552267         0.370214        -2.656970
 H         1.741629         0.080218        -3.058363
 H         2.998569         2.480110        -2.151068
 H         1.236313         2.250887        -2.091160
 H         1.728301         2.366855         1.378336
