19
Iteration:  3496
 C        -0.065087         0.266070         0.242244
 C         1.378820         0.361972        -0.097473
 O         2.336707         0.054082         1.133991
 C         3.102777         0.564638         0.116935
 C         2.489672        -0.338483        -1.025303
 C         2.770386         0.350630        -2.301617
 C         2.302904         1.858794        -1.924471
 C         2.216248         1.731821        -0.336219
 O         1.886441         2.844175         0.415213
 H        -0.473752         0.770247         1.073947
 H        -0.587871         0.557451        -0.682370
 H        -0.370025        -0.840766         0.415677
 H         4.219598         0.433758         0.179372
 H         2.498311        -1.445952        -1.004694
 H         3.886528         0.373179        -2.532991
 H         2.298570        -0.011178        -3.212276
 H         3.061825         2.496857        -2.170734
 H         1.301894         2.125729        -2.425090
 H         2.127411         2.766051         1.350245
