19
Iteration:   853
 C        -0.099716         0.370148        -0.010076
 C         1.425646         0.271885        -0.077450
 O         2.371706         0.156032         1.187094
 C         3.233226         0.579475         0.088135
 C         2.563525        -0.447087        -0.917554
 C         2.600134         0.388116        -2.320142
 C         2.164203         1.855757        -1.885336
 C         2.254674         1.682051        -0.361495
 O         1.969483         2.739653         0.501067
 H        -0.396175         1.208265         0.645650
 H        -0.349829         0.662983        -1.090692
 H        -0.599397        -0.596937         0.324175
 H         4.271648         0.755420         0.381049
 H         2.703798        -1.585809        -1.062192
 H         3.592937         0.368113        -2.652925
 H         1.964494        -0.043704        -3.137674
 H         2.901533         2.707436        -1.968126
 H         1.200742         2.438579        -2.037801
 H         1.442791         2.485044         1.266827
