19
Iteration:  2744
 C        -0.057657        -0.055937        -0.018769
 C         1.358263         0.319219         0.029928
 O         2.206413         0.246120         1.196370
 C         3.244823         0.515901         0.069270
 C         2.372902        -0.305922        -0.921205
 C         2.627294         0.387054        -2.299182
 C         2.256105         1.941043        -1.870612
 C         2.234763         1.737871        -0.368326
 O         2.185803         2.884951         0.418912
 H        -0.733583         0.571649         0.525371
 H        -0.424206        -0.079451        -1.054834
 H        -0.260948        -1.136459         0.293546
 H         4.286853         0.625069         0.265607
 H         2.371405        -1.366013        -0.762440
 H         3.557786         0.233952        -2.753381
 H         1.797056         0.137988        -3.028719
 H         2.930501         2.857934        -2.098367
 H         1.212154         2.196452        -2.140151
 H         2.439125         2.541781         1.327036
