19
Iteration:  3946
 C         0.005280        -0.118623         0.092960
 C         1.391626         0.346204        -0.075269
 O         2.119517         0.131329         1.175423
 C         3.128724         0.570031         0.089470
 C         2.401389        -0.254259        -0.992253
 C         2.515410         0.526988        -2.369050
 C         2.438214         1.978843        -1.819418
 C         2.260197         1.694323        -0.294462
 O         2.162782         2.814032         0.396537
 H        -0.658669         0.472574         0.839892
 H        -0.550811        -0.252713        -0.888216
 H         0.052714        -1.010659         0.717128
 H         4.156020         0.846774         0.373111
 H         2.692653        -1.352123        -0.842822
 H         3.434074         0.231412        -2.962185
 H         1.732420         0.396892        -3.063824
 H         3.367126         2.388046        -2.018708
 H         1.693229         2.708704        -2.285492
 H         1.758763         2.667644         1.262896
