19
Iteration:  3221charge 0 multiplicity 1
 C        -0.024727        -0.030538        -0.031551
 C         1.407945         0.447168        -0.102779
 O         2.249964         0.185141         1.179593
 C         3.185932         0.591561         0.181171
 C         2.472041        -0.243729        -0.913251
 C         2.524902         0.345260        -2.321721
 C         2.226033         1.844561        -1.882047
 C         2.212911         1.771454        -0.326303
 O         2.183263         2.846147         0.415782
 H        -0.627983         0.627758         0.611575
 H        -0.502030        -0.156076        -0.974502
 H        -0.125455        -1.065058         0.420186
 H         4.263774         0.645623         0.479112
 H         2.439169        -1.305669        -0.853000
 H         3.558596         0.105484        -2.616008
 H         1.757218        -0.119077        -2.894528
 H         2.833845         2.569385        -2.316944
 H         1.187748         2.099142        -2.115146
 H         2.115162         2.542857         1.358477
