19
Iteration:  1129
 C        -0.090097        -0.131311        -0.029745
 C         1.345343         0.380016        -0.027749
 O         2.257938         0.273800         1.286374
 C         3.177830         0.522722         0.127557
 C         2.523393        -0.264178        -0.950484
 C         2.336323         0.489585        -2.277678
 C         2.401878         1.916920        -1.823322
 C         2.290717         1.692057        -0.366007
 O         2.165901         2.819266         0.324807
 H        -0.707280         0.503649         0.642529
 H        -0.319433         0.106489        -1.053827
 H        -0.089346        -1.185476         0.171859
 H         4.170864         0.700953         0.409462
 H         2.673110        -1.382803        -0.974557
 H         3.268972         0.278264        -2.924928
 H         1.456736        -0.058969        -2.844946
 H         3.434801         2.324168        -2.132778
 H         1.488251         2.458416        -2.282991
 H         1.906507         2.648079         1.253994
