19
Iteration:  1299charge 0 multiplicity 1
 C        -0.009489        -0.102172        -0.084585
 C         1.430964         0.412238        -0.078556
 O         2.247741         0.197116         1.222579
 C         3.252777         0.594387         0.074890
 C         2.454455        -0.343890        -0.936452
 C         2.310083         0.302544        -2.311538
 C         2.350298         1.848372        -1.866369
 C         2.259382         1.754503        -0.311823
 O         2.148192         3.017629         0.447836
 H        -0.705080         0.442267         0.606297
 H        -0.432361        -0.066795        -1.044216
 H        -0.061242        -1.220987         0.223978
 H         4.316796         0.654078         0.625468
 H         2.274153        -1.288184        -0.527394
 H         3.040749         0.190363        -3.075440
 H         1.387682        -0.036659        -2.722887
 H         3.353962         2.228540        -1.856921
 H         1.688934         2.587806        -2.291846
 H         2.110836         2.637086         1.376570
