19
Iteration:  1531
 C        -0.061500         0.222012         0.175838
 C         1.378636         0.458266         0.011358
 O         2.275111         0.077735         1.217146
 C         3.172192         0.489388         0.076448
 C         2.504256        -0.344750        -0.998788
 C         2.710010         0.392294        -2.365458
 C         2.276527         1.917854        -1.931482
 C         2.175979         1.693250        -0.375656
 O         1.979120         2.810743         0.363888
 H        -0.588139         0.839018         0.910094
 H        -0.430161         0.139169        -0.804070
 H         0.005935        -0.746139         0.570518
 H         4.302020         0.619360         0.476862
 H         2.334704        -1.401145        -0.872270
 H         3.762215         0.145287        -2.624552
 H         2.107022        -0.100271        -3.103936
 H         3.034428         2.627756        -2.123132
 H         1.262245         2.184899        -2.298350
 H         2.150926         2.680981         1.329854
