19
Iteration:  4861
 C        -0.089826         0.002674        -0.049137
 C         1.367081         0.380783        -0.054309
 O         2.327364         0.173452         1.209698
 C         3.206129         0.490376         0.122590
 C         2.412744        -0.294080        -0.909183
 C         2.523518         0.422576        -2.232483
 C         2.361077         1.917050        -1.870582
 C         2.266856         1.737470        -0.405171
 O         2.075118         2.876501         0.407267
 H        -0.702319         0.344665         0.832091
 H        -0.845267         0.279612        -0.742517
 H        -0.286963        -1.039644         0.174293
 H         4.366239         0.605827         0.131853
 H         2.460747        -1.424682        -0.805533
 H         3.516103         0.132345        -2.666410
 H         1.841881         0.230071        -3.093364
 H         3.177339         2.662434        -2.122672
 H         1.422858         2.291187        -2.186964
 H         1.930476         2.387133         1.257103
