19
Iteration:  4286charge 0 multiplicity 1
 C        -0.041784        -0.046437         0.099769
 C         1.398104         0.401986        -0.139037
 O         2.219164         0.202335         1.182879
 C         3.161563         0.584724         0.224157
 C         2.516107        -0.345146        -0.961542
 C         2.475398         0.410070        -2.429904
 C         2.431840         1.892845        -1.844445
 C         2.247667         1.679766        -0.393660
 O         2.052901         2.886499         0.477910
 H        -0.387728         0.750775         0.826236
 H        -0.611205         0.311792        -0.733491
 H        -0.145979        -1.168638         0.248932
 H         4.217636         0.630054         0.459083
 H         2.565724        -1.424308        -0.767311
 H         3.291612         0.203298        -3.223399
 H         1.544675         0.145532        -2.949110
 H         3.264350         2.457241        -2.214167
 H         1.475290         2.433577        -2.349376
 H         2.052953         2.454323         1.337606
