19
Iteration:  2626
 C        -0.066346         0.337722         0.112663
 C         1.444091         0.380807        -0.064919
 O         2.271928         0.054663         1.178608
 C         3.217039         0.579198         0.102756
 C         2.522532        -0.318348        -0.969120
 C         2.662152         0.471877        -2.300736
 C         2.271227         1.799154        -1.846284
 C         2.201502         1.639111        -0.386745
 O         1.937108         2.718484         0.388019
 H        -0.327539         1.148602         0.734476
 H        -0.687037         0.470559        -0.799942
 H        -0.523303        -0.642422         0.506089
 H         4.213243         0.959732         0.417096
 H         2.623210        -1.378522        -0.909538
 H         3.731838         0.413970        -2.633510
 H         1.978742         0.133947        -3.102029
 H         2.931092         2.583234        -2.162085
 H         1.314091         2.027865        -2.284605
 H         2.259159         2.373275         1.264132
