19
Iteration:   130charge 0 multiplicity 1
 C        -0.130528         0.318134         0.111997
 C         1.426283         0.288653        -0.033084
 O         2.318089         0.223737         1.186606
 C         3.290552         0.522855         0.129895
 C         2.478635        -0.366874        -0.948670
 C         2.646583         0.458140        -2.323859
 C         2.365215         1.911944        -1.924027
 C         2.256224         1.619298        -0.389880
 O         1.861555         2.683055         0.380668
 H        -0.471522         1.086568         0.921936
 H        -0.776977         0.436330        -0.699905
 H        -0.555272        -0.660557         0.558284
 H         4.348240         0.477972         0.444184
 H         2.569637        -1.437444        -0.960982
 H         3.704892         0.221830        -2.647395
 H         2.008794         0.237573        -3.158250
 H         2.970386         2.787081        -2.340494
 H         1.361534         2.044892        -2.111248
 H         1.857900         2.411530         1.314487
