19
Iteration:  2499
 C        -0.020293         0.122302         0.070624
 C         1.416789         0.396112        -0.036353
 O         2.320528         0.147194         1.163818
 C         3.152935         0.535340         0.131316
 C         2.472549        -0.331288        -0.967080
 C         2.512634         0.350469        -2.345412
 C         2.495829         1.915042        -1.844131
 C         2.217040         1.674232        -0.399834
 O         1.863633         2.855008         0.455803
 H        -0.467754         0.822961         0.855170
 H        -0.544432         0.498273        -0.799325
 H        -0.396378        -0.806651         0.335512
 H         4.243786         0.389189         0.315851
 H         2.655497        -1.427682        -0.978007
 H         3.399962         0.094992        -2.963561
 H         1.640829         0.156063        -2.953747
 H         3.473765         2.393067        -2.103715
 H         1.621934         2.460327        -2.309443
 H         2.337315         2.582499         1.248771
