19
Iteration:   255
 C        -0.014668         0.065733         0.055967
 C         1.383698         0.313516        -0.067398
 O         2.259666         0.233961         1.193415
 C         3.133334         0.616384         0.081897
 C         2.531411        -0.353363        -0.969064
 C         2.492771         0.378035        -2.303529
 C         2.425326         1.887210        -1.829925
 C         2.117321         1.645909        -0.382067
 O         2.104535         2.840209         0.438983
 H        -0.500662         0.773016         0.636528
 H        -0.545042         0.282614        -0.935275
 H        -0.353932        -0.870935         0.378410
 H         4.148750         0.870795         0.419449
 H         2.586677        -1.498849        -0.892072
 H         3.348889         0.205879        -2.931786
 H         1.569957         0.020882        -2.889567
 H         3.240697         2.572090        -1.939631
 H         1.616453         2.459559        -2.471622
 H         2.119395         2.501907         1.347266
