19
Iteration:  2377charge 0 multiplicity 1
 C        -0.012455         0.010549        -0.013200
 C         1.409824         0.406599        -0.063556
 O         2.216773         0.161861         1.119667
 C         3.259246         0.644392         0.099822
 C         2.413693        -0.279592        -0.885113
 C         2.372101         0.381342        -2.295403
 C         2.537228         1.870576        -1.825028
 C         2.242061         1.705711        -0.330332
 O         2.052842         2.823431         0.414779
 H        -0.598332         0.500730         0.768994
 H        -0.610103         0.044653        -0.903901
 H        -0.042223        -1.045941         0.359259
 H         4.308989         0.745687         0.460610
 H         2.490274        -1.311804        -0.803391
 H         3.077031        -0.035547        -3.082346
 H         1.411998         0.308307        -2.696395
 H         3.435088         2.480964        -1.939413
 H         1.666626         2.463117        -2.344433
 H         1.776000         2.359379         1.250356
