19
Iteration:  4035
 C        -0.072642         0.369488        -0.014256
 C         1.446574         0.221863        -0.047671
 O         2.260407         0.136847         1.142284
 C         3.304186         0.616723         0.077848
 C         2.571512        -0.273496        -1.030358
 C         2.524343         0.358061        -2.321836
 C         2.246443         1.878277        -1.779002
 C         2.292199         1.606720        -0.291408
 O         1.948551         2.730321         0.486007
 H        -0.367932         1.115802         0.808214
 H        -0.339644         0.629919        -1.035163
 H        -0.630091        -0.681533         0.159449
 H         4.338031         0.675060         0.382532
 H         3.008805        -1.300300        -0.936970
 H         3.565527         0.234974        -2.765763
 H         1.803749         0.081737        -3.054261
 H         2.773177         2.697882        -2.158291
 H         1.108329         2.021230        -2.009879
 H         1.534826         2.456270         1.308424
