19
Iteration:  2308charge 0 multiplicity 1
 C        -0.120972         0.193914         0.046603
 C         1.428320         0.384027        -0.043201
 O         2.364452         0.073727         1.153708
 C         3.223863         0.539521         0.087471
 C         2.430773        -0.324870        -0.982127
 C         2.660640         0.389194        -2.308103
 C         2.291507         1.859244        -1.890560
 C         2.136674         1.699879        -0.309303
 O         1.979578         2.858319         0.452566
 H        -0.508550         0.862668         0.798402
 H        -0.596834         0.334873        -0.973777
 H        -0.483738        -0.808481         0.450932
 H         4.291377         0.456280         0.304940
 H         2.432978        -1.456342        -0.685101
 H         3.746070         0.226709        -2.548733
 H         2.117367         0.111613        -3.188974
 H         2.998741         2.631043        -2.175575
 H         1.349799         2.287751        -2.344577
 H         2.423247         2.692761         1.321318
