19
Iteration:  4390
 C        -0.007433         0.282776         0.141172
 C         1.419181         0.351465        -0.160618
 O         2.304073         0.215160         1.178236
 C         3.124206         0.522236         0.138514
 C         2.604190        -0.370204        -1.017834
 C         2.638116         0.444830        -2.318535
 C         2.232580         1.860162        -1.851650
 C         2.247021         1.603181        -0.351755
 O         1.919227         2.749686         0.424580
 H        -0.443669         1.024380         0.738440
 H        -0.765991         0.156471        -0.694601
 H        -0.210137        -0.620723         0.634021
 H         4.187213         0.578660         0.483065
 H         2.563358        -1.492142        -0.854053
 H         3.643485         0.405341        -2.678934
 H         1.984167         0.176398        -3.168068
 H         3.143866         2.443655        -2.211153
 H         1.391044         2.309376        -2.314070
 H         1.726243         2.390459         1.335136
