19
Iteration:    40
 C        -0.011684        -0.134002        -0.063855
 C         1.360314         0.368177        -0.005152
 O         2.232617         0.263752         1.155196
 C         3.166917         0.679282         0.090569
 C         2.389149        -0.278452        -0.897782
 C         2.431413         0.348507        -2.254971
 C         2.346411         1.869574        -1.792771
 C         2.256430         1.738435        -0.357159
 O         2.177989         2.862696         0.393722
 H        -0.759907         0.413200         0.644911
 H        -0.429898        -0.001172        -1.165810
 H         0.078350        -1.230560         0.177253
 H         4.265955         0.758795         0.290062
 H         2.468398        -1.367215        -0.814126
 H         3.477171         0.237032        -2.729219
 H         1.700751        -0.053041        -2.957977
 H         3.414940         2.256666        -2.033263
 H         1.598085         2.482866        -2.265980
 H         2.232713         2.536602         1.316158
