19
Iteration:  3786
 C        -0.002819        -0.154639         0.091652
 C         1.322086         0.364254        -0.118929
 O         2.142616         0.090367         1.119666
 C         3.141073         0.567680         0.093028
 C         2.446699        -0.284766        -0.999005
 C         2.511568         0.476298        -2.351250
 C         2.436484         1.855859        -1.831554
 C         2.248095         1.766507        -0.331281
 O         2.164941         2.991085         0.498147
 H        -0.594287         0.591142         0.624992
 H        -0.510424        -0.332683        -0.824175
 H        -0.019884        -1.081244         0.801854
 H         4.194942         0.666417         0.280548
 H         2.518733        -1.373754        -0.783746
 H         3.425622         0.361494        -2.989979
 H         1.604574         0.137531        -2.981923
 H         3.429709         2.433881        -1.887503
 H         1.741195         2.543542        -2.315409
 H         1.935084         2.805005         1.424423
