19
Iteration:  2351charge 0 multiplicity 1
 C         0.023044         0.022280         0.086137
 C         1.414103         0.328156        -0.079875
 O         2.193724         0.152349         1.171086
 C         3.228813         0.503186         0.219246
 C         2.533087        -0.312764        -0.917729
 C         2.360985         0.462851        -2.395637
 C         2.486163         1.890452        -1.926374
 C         2.252866         1.725556        -0.335808
 O         2.027333         2.909365         0.418523
 H        -0.563374         0.681530         0.724486
 H        -0.650307         0.241027        -0.813681
 H        -0.153887        -1.066062         0.436399
 H         4.250478         0.368701         0.567801
 H         2.761242        -1.472759        -0.957660
 H         3.018190         0.263127        -3.247283
 H         1.310291         0.238429        -2.792989
 H         3.507997         2.296950        -1.928209
 H         1.897266         2.687063        -2.397110
 H         1.386328         2.486727         1.045592
