19
Iteration:  4739charge 0 multiplicity 1
 C        -0.075975         0.293121         0.178568
 C         1.393937         0.316608        -0.040433
 O         2.207624         0.141520         1.182559
 C         3.239003         0.578058         0.054599
 C         2.544772        -0.361123        -1.010622
 C         2.691778         0.418009        -2.394484
 C         2.371615         1.864177        -1.833761
 C         2.207491         1.610448        -0.392762
 O         1.880524         2.776501         0.428238
 H        -0.413746         1.075565         0.877325
 H        -0.766744         0.397530        -0.704418
 H        -0.374043        -0.587438         0.633083
 H         4.315996         0.564396         0.362333
 H         2.855395        -1.454453        -0.989759
 H         3.682159         0.313036        -2.830528
 H         1.915626         0.122520        -3.072246
 H         3.166824         2.551285        -1.998699
 H         1.476444         2.273150        -2.259263
 H         2.139494         2.563404         1.342002
