19
Iteration:  4753charge 0 multiplicity 1
 C        -0.137887         0.256010         0.164496
 C         1.441842         0.390415        -0.068748
 O         2.320575         0.173574         1.128757
 C         3.245131         0.427393         0.045169
 C         2.522347        -0.336926        -0.998897
 C         2.660076         0.391576        -2.266620
 C         2.391836         1.883612        -1.890118
 C         2.216359         1.692158        -0.302355
 O         1.822278         2.766759         0.433454
 H        -0.319551         1.282627         0.663445
 H        -0.519221         0.187329        -0.885551
 H        -0.549630        -0.705480         0.681815
 H         4.358904         0.621320         0.196803
 H         2.361507        -1.435436        -0.997589
 H         3.612691         0.254980        -2.807674
 H         1.910631         0.046123        -3.032849
 H         3.275069         2.676923        -2.147433
 H         1.547799         2.309278        -2.370578
 H         1.843129         2.406620         1.379013
