19
Iteration:  2329
 C        -0.070268         0.085885         0.085777
 C         1.404524         0.366362        -0.048370
 O         2.284216         0.085942         1.203088
 C         3.171616         0.566400         0.075039
 C         2.490483        -0.313829        -1.003089
 C         2.497701         0.444881        -2.245118
 C         2.446132         1.935132        -1.806379
 C         2.237379         1.654618        -0.311791
 O         1.984893         2.836573         0.303769
 H        -0.599884         0.805607         0.728112
 H        -0.581740         0.322594        -0.905284
 H        -0.392208        -0.946203         0.406230
 H         4.238958         0.731052         0.209039
 H         2.564853        -1.469156        -1.039825
 H         3.381624         0.223255        -2.833385
 H         1.665378         0.114079        -2.895770
 H         3.382550         2.490379        -1.984189
 H         1.648863         2.582978        -2.126191
 H         2.140821         2.652960         1.246912
