19
Iteration:  2730
 C        -0.047944        -0.098489        -0.024041
 C         1.384154         0.488246        -0.046673
 O         2.223813         0.162685         1.190667
 C         3.105029         0.571542         0.092242
 C         2.483118        -0.309740        -0.888392
 C         2.476308         0.469312        -2.206600
 C         2.312805         1.899706        -1.893871
 C         2.201032         1.686022        -0.359474
 O         2.209619         2.857663         0.403577
 H        -0.769246         0.423196         0.709754
 H        -0.351629         0.085655        -1.074350
 H         0.097387        -1.085532         0.270317
 H         4.182957         0.650104         0.297434
 H         2.522027        -1.428103        -0.973094
 H         3.509960         0.318989        -2.613281
 H         1.794526        -0.014008        -2.916806
 H         3.073907         2.445870        -2.316010
 H         1.391809         2.285888        -2.381777
 H         2.523891         2.663974         1.284767
