19
Iteration:  2710charge 0 multiplicity 1
 C        -0.082653        -0.078627        -0.008766
 C         1.404789         0.301702        -0.057551
 O         2.199459         0.163217         1.174086
 C         3.222737         0.629714         0.171684
 C         2.473648        -0.267611        -0.910908
 C         2.455985         0.371665        -2.424052
 C         2.361675         1.885488        -1.841471
 C         2.248630         1.699414        -0.337856
 O         2.169866         2.969901         0.433832
 H        -0.522854         0.534867         0.838786
 H        -0.560894         0.179562        -0.996426
 H        -0.219188        -1.154328         0.230734
 H         4.241937         0.681919         0.479332
 H         2.481035        -1.355245        -0.715850
 H         3.242814        -0.032263        -2.982033
 H         1.509807        -0.027976        -2.902778
 H         3.307822         2.517833        -2.099950
 H         1.484291         2.518560        -2.152277
 H         1.999006         2.657511         1.348790
