19
Iteration:  1760charge 0 multiplicity 1
 C        -0.078866         0.306570         0.037542
 C         1.493843         0.286545        -0.081461
 O         2.267228         0.105764         1.211238
 C         3.244834         0.557071         0.096768
 C         2.608947        -0.364435        -0.945473
 C         2.486909         0.406428        -2.302302
 C         2.299174         1.913320        -1.849563
 C         2.274318         1.655438        -0.381434
 O         1.880111         2.761596         0.400181
 H        -0.122019         1.142430         0.838568
 H        -0.605053         0.779316        -0.840404
 H        -0.444468        -0.646104         0.308828
 H         4.249632         0.571968         0.547552
 H         3.023393        -1.342801        -0.862343
 H         3.356260         0.321067        -2.990493
 H         1.607026         0.087475        -2.840198
 H         3.057619         2.645112        -2.032975
 H         1.332504         2.108531        -2.236878
 H         2.120847         2.459999         1.303712
