19
Iteration:  3686charge 0 multiplicity 1
 C        -0.021284         0.376737         0.056794
 C         1.455286         0.300514        -0.119533
 O         2.304899         0.137321         1.196176
 C         3.289096         0.462533         0.111223
 C         2.551441        -0.363976        -0.980189
 C         2.677738         0.479747        -2.314114
 C         2.188769         1.863384        -1.852881
 C         2.200134         1.627257        -0.346164
 O         1.892310         2.734883         0.448707
 H        -0.224705         0.919896         1.057624
 H        -0.493872         0.904346        -0.764484
 H        -0.463294        -0.590819         0.199114
 H         4.293981         0.738321         0.347618
 H         2.353226        -1.455529        -0.967599
 H         3.727333         0.561563        -2.754726
 H         1.957159         0.105480        -3.063355
 H         2.936372         2.499485        -2.299690
 H         1.141500         2.041325        -2.111540
 H         1.413210         2.501690         1.246923
