19
Iteration:  4002charge 0 multiplicity 1
 C         0.043248         0.184741        -0.043708
 C         1.456526         0.365738        -0.067416
 O         2.314674         0.049061         1.172990
 C         3.226724         0.531815         0.201584
 C         2.424907        -0.256723        -1.016477
 C         2.472409         0.421721        -2.296412
 C         2.322250         1.913804        -1.854933
 C         2.195760         1.669637        -0.320255
 O         1.964807         2.812123         0.452704
 H        -0.546005         1.004541         0.489029
 H        -0.370043         0.103898        -1.051488
 H        -0.011452        -0.885307         0.436043
 H         4.257530         0.678355         0.496870
 H         2.591005        -1.370081        -0.996933
 H         3.488309         0.155394        -2.721451
 H         1.693938         0.209218        -2.985290
 H         3.098937         2.560379        -2.139173
 H         1.346802         2.381628        -2.286591
 H         2.161503         2.555323         1.390462
