19
Iteration:  4080charge 0 multiplicity 1
 C        -0.106982         0.085262         0.094001
 C         1.418675         0.383014        -0.007446
 O         2.280726         0.149863         1.120244
 C         3.223606         0.516237         0.088678
 C         2.393357        -0.356051        -1.020240
 C         2.646891         0.485001        -2.310294
 C         2.348452         1.864212        -1.843503
 C         2.294804         1.704327        -0.335425
 O         1.954392         2.841177         0.444158
 H        -0.424369         0.604638         1.009407
 H        -0.633742         0.480410        -0.776665
 H        -0.356109        -1.101381         0.151088
 H         4.257018         0.466779         0.373836
 H         2.394010        -1.445195        -1.080821
 H         3.671938         0.308832        -2.730274
 H         1.897786         0.224114        -3.079215
 H         3.137934         2.524086        -2.181107
 H         1.354659         2.300759        -2.206147
 H         2.198284         2.741319         1.368986
