19
Iteration:  1133
 C        -0.104438        -0.093016        -0.028878
 C         1.364951         0.365982        -0.034257
 O         2.245011         0.253244         1.306655
 C         3.183779         0.573625         0.089129
 C         2.571131        -0.247773        -0.974698
 C         2.359005         0.455903        -2.307645
 C         2.361397         1.885784        -1.828651
 C         2.292430         1.661282        -0.354219
 O         2.158400         2.843023         0.353136
 H        -0.728415         0.487924         0.630347
 H        -0.445103         0.145873        -1.149377
 H        -0.156780        -1.148353         0.241151
 H         4.295194         0.601134         0.437812
 H         2.630654        -1.374944        -0.827288
 H         3.164956         0.176107        -2.869449
 H         1.515827         0.077252        -2.861973
 H         3.348130         2.314286        -2.086113
 H         1.564259         2.446414        -2.200782
 H         1.907905         2.664220         1.271665
