19
Iteration:  1947
 C        -0.050391         0.236841        -0.031220
 C         1.439975         0.398001        -0.009514
 O         2.276128         0.121893         1.176631
 C         3.246833         0.489329         0.085959
 C         2.549730        -0.373919        -1.025185
 C         2.571920         0.349735        -2.310233
 C         2.199189         1.881317        -1.908914
 C         2.214584         1.687301        -0.338429
 O         1.988813         2.854782         0.552628
 H        -0.353222         0.954667         0.778077
 H        -0.562447         0.606049        -1.038497
 H        -0.425184        -0.817986         0.191059
 H         4.300830         0.454292         0.387034
 H         2.677929        -1.459451        -0.787173
 H         3.584624         0.468858        -2.867182
 H         1.881642        -0.102599        -3.042661
 H         3.002119         2.584755        -2.235226
 H         1.180031         2.214339        -2.185389
 H         2.297302         2.589084         1.454835
