19
Iteration:  2068
 C        -0.103659         0.240803         0.033764
 C         1.395373         0.362050        -0.113307
 O         2.409911         0.073867         1.147968
 C         3.237493         0.572943         0.094551
 C         2.452933        -0.335021        -0.915445
 C         2.497356         0.448286        -2.293462
 C         2.346781         1.872300        -1.843052
 C         2.235380         1.715034        -0.358286
 O         1.961165         2.745479         0.480869
 H        -0.493720         0.981178         0.719740
 H        -0.493568         0.484825        -1.043500
 H        -0.397279        -0.727398         0.514448
 H         4.326196         0.577315         0.263024
 H         2.712900        -1.405721        -0.986866
 H         3.534033         0.272165        -2.820274
 H         1.786664        -0.011186        -2.958407
 H         3.231511         2.450046        -2.186382
 H         1.403915         2.346417        -2.288494
 H         1.601199         2.545668         1.339970
