19
Iteration:   313
 C        -0.073136         0.329119         0.152566
 C         1.524382         0.323712        -0.038334
 O         2.185480         0.020892         1.183285
 C         3.321228         0.532209         0.084243
 C         2.590365        -0.321792        -0.956214
 C         2.600000         0.399323        -2.358994
 C         2.227138         1.818244        -1.908830
 C         2.228999         1.683239        -0.395076
 O         1.893995         2.857610         0.405426
 H        -0.202029         1.144318         0.869931
 H        -0.599489         0.497840        -0.744009
 H        -0.430170        -0.629028         0.580493
 H         4.342775         0.311541         0.491399
 H         2.628945        -1.344007        -0.917693
 H         3.738562         0.603963        -2.631440
 H         2.077278        -0.045219        -3.138154
 H         3.141883         2.527149        -2.089590
 H         1.221535         2.216159        -2.265963
 H         1.663427         2.630268         1.337897
