19
Iteration:   827
 C        -0.013819         0.325706         0.025580
 C         1.455871         0.369508        -0.020790
 O         2.222006         0.097309         1.193685
 C         3.215220         0.521846         0.089108
 C         2.594349        -0.338013        -0.960087
 C         2.600227         0.454144        -2.282701
 C         2.191592         1.824220        -1.890258
 C         2.265684         1.669077        -0.338348
 O         1.932158         2.729923         0.424565
 H        -0.402319         1.074543         0.714283
 H        -0.313108         0.605316        -1.024089
 H        -0.347565        -0.650756         0.276313
 H         4.321477         0.531672         0.362523
 H         2.716179        -1.390330        -1.091414
 H         3.626634         0.323464        -2.806948
 H         1.848366         0.045925        -2.894945
 H         2.745301         2.693149        -2.249634
 H         1.117283         2.046067        -2.064843
 H         2.393891         2.703802         1.288629
