19
Iteration:  2680charge 0 multiplicity 1
 C        -0.061059         0.139520         0.053200
 C         1.456068         0.345792        -0.039632
 O         2.278058         0.103849         1.164667
 C         3.235248         0.549987         0.146290
 C         2.517710        -0.272649        -0.896935
 C         2.443255         0.428763        -2.317392
 C         2.400131         1.944371        -1.822619
 C         2.209298         1.658407        -0.394794
 O         1.978328         2.827804         0.320363
 H        -0.440716         0.638222         0.891862
 H        -0.576509         0.474804        -0.836893
 H        -0.137565        -0.984528         0.287356
 H         4.256912         0.448982         0.457551
 H         2.619342        -1.330098        -0.884972
 H         3.230856         0.029350        -2.938069
 H         1.470993         0.030276        -2.689902
 H         3.495757         2.274244        -1.797815
 H         1.802132         2.729971        -2.286541
 H         1.654923         2.398962         1.163436
