19
Iteration:  3418
 C        -0.016056        -0.024628        -0.148941
 C         1.364667         0.416614         0.029291
 O         2.310833         0.157234         1.174829
 C         3.172723         0.622012         0.151732
 C         2.511576        -0.258980        -0.825955
 C         2.296792         0.330566        -2.269091
 C         2.390072         1.824284        -1.836374
 C         2.239587         1.720522        -0.377277
 O         2.125720         2.902726         0.399218
 H        -0.734337         0.616746         0.325440
 H        -0.297913         0.093738        -1.185266
 H        -0.190715        -1.155755         0.110752
 H         4.246026         0.941669         0.387661
 H         2.718866        -1.338265        -0.950886
 H         3.127165         0.097884        -2.993938
 H         1.400019        -0.033432        -2.782957
 H         3.338250         2.302786        -2.020009
 H         1.656959         2.585594        -2.186763
 H         2.127184         2.514410         1.305392
