19
Iteration:  4082charge 0 multiplicity 1
 C        -0.102445         0.075554         0.100436
 C         1.408847         0.375019        -0.014703
 O         2.278808         0.151236         1.125678
 C         3.204971         0.528928         0.087764
 C         2.391829        -0.351774        -1.029027
 C         2.644922         0.486189        -2.307426
 C         2.356347         1.852042        -1.825623
 C         2.302512         1.681453        -0.338240
 O         1.964237         2.856581         0.434080
 H        -0.403805         0.554039         1.015674
 H        -0.621463         0.467088        -0.806168
 H        -0.350509        -1.090095         0.179541
 H         4.265690         0.528197         0.356983
 H         2.365275        -1.418883        -1.047339
 H         3.627662         0.350945        -2.751385
 H         1.901993         0.287848        -3.153064
 H         3.196809         2.548110        -2.218477
 H         1.377556         2.313029        -2.126075
 H         2.153211         2.709977         1.384784
