19
Iteration:  4408
 C        -0.094596         0.206069         0.188540
 C         1.445809         0.370591        -0.060069
 O         2.220030         0.118907         1.120738
 C         3.288507         0.573659         0.021982
 C         2.477809        -0.275551        -0.940261
 C         2.681069         0.335067        -2.289525
 C         2.381956         1.877493        -1.884791
 C         2.194124         1.717690        -0.405326
 O         1.880129         2.761247         0.473919
 H        -0.324253         1.096611         0.795740
 H        -0.594976         0.312997        -0.778620
 H        -0.317250        -0.821202         0.693173
 H         4.354116         0.666715         0.234951
 H         2.606294        -1.327826        -0.931016
 H         3.717720         0.268552        -2.781228
 H         2.081623         0.017465        -3.162316
 H         2.939492         2.714509        -2.154379
 H         1.371707         2.192293        -2.478638
 H         1.947758         2.278513         1.350843
