19
Iteration:  4085
 C        -0.090165         0.054659         0.106652
 C         1.390045         0.358995        -0.036478
 O         2.274503         0.148472         1.140865
 C         3.180513         0.542392         0.085898
 C         2.395444        -0.331687        -1.037537
 C         2.626510         0.476621        -2.311527
 C         2.373766         1.854951        -1.801475
 C         2.303682         1.653621        -0.339045
 O         1.983575         2.875878         0.416179
 H        -0.425736         0.505804         1.051875
 H        -0.594355         0.443195        -0.804746
 H        -0.294269        -0.948466         0.212178
 H         4.282059         0.617274         0.323735
 H         2.353436        -1.435545        -0.985346
 H         3.599731         0.403175        -2.771815
 H         1.958005         0.355197        -3.208056
 H         3.197316         2.548905        -2.208950
 H         1.439341         2.310383        -2.029832
 H         2.082267         2.639014         1.378262
