19
Iteration:  4614
 C        -0.000718         0.187878         0.082306
 C         1.461209         0.367464        -0.044597
 O         2.237152         0.126096         1.162196
 C         3.189597         0.485449         0.089139
 C         2.494403        -0.306654        -0.906290
 C         2.553783         0.429346        -2.266847
 C         2.353255         1.921957        -1.886352
 C         2.265021         1.736048        -0.412841
 O         1.945739         2.800173         0.413577
 H        -0.709320         0.886369         0.518038
 H        -0.443430        -0.057297        -0.872331
 H        -0.272948        -0.803531         0.596103
 H         4.248988         0.511257         0.332594
 H         2.514969        -1.367458        -0.901975
 H         3.387605         0.074662        -2.923248
 H         1.698967        -0.068815        -2.779697
 H         3.332829         2.393848        -2.097866
 H         1.495452         2.502426        -2.363186
 H         1.908558         2.398897         1.294225
