19
Iteration:   625
 C        -0.024544         0.125913         0.136053
 C         1.376391         0.320126        -0.042346
 O         2.230665         0.175131         1.237507
 C         3.206699         0.579153         0.090547
 C         2.450289        -0.345480        -0.954453
 C         2.590409         0.486307        -2.330941
 C         2.384545         1.965067        -1.915728
 C         2.199788         1.608951        -0.369065
 O         2.051694         2.743265         0.367905
 H        -0.439582         0.853015         0.797594
 H        -0.437329         0.348408        -0.868390
 H        -0.317367        -0.879447         0.448556
 H         4.279843         0.622118         0.264401
 H         2.476172        -1.542257        -0.713250
 H         3.467574         0.238410        -2.850990
 H         1.792899         0.289846        -3.192408
 H         3.140051         2.742049        -1.929827
 H         1.512463         2.415862        -2.384989
 H         1.692566         2.477936         1.243518
