19
Iteration:  2054
 C        -0.078426         0.156260         0.074502
 C         1.433833         0.346102         0.044400
 O         2.322178         0.186378         1.158284
 C         3.265351         0.484585         0.014027
 C         2.470599        -0.339804        -1.022833
 C         2.502280         0.394928        -2.307971
 C         2.399280         1.971073        -1.822222
 C         2.222273         1.639973        -0.350717
 O         1.944829         2.806224         0.443185
 H        -0.686386         0.919536         0.598273
 H        -0.413842         0.207234        -0.982386
 H        -0.446289        -0.819701         0.301981
 H         4.306176         0.599042         0.237793
 H         2.314543        -1.512220        -0.759789
 H         3.425578         0.207480        -2.861019
 H         1.615399         0.328654        -3.016416
 H         3.388376         2.584469        -1.868186
 H         1.632468         2.601230        -2.270667
 H         1.898249         2.308049         1.317039
