19
Iteration:  3455
 C         0.015169         0.006988         0.094523
 C         1.401740         0.412071        -0.079590
 O         2.208415         0.265173         1.233888
 C         3.152644         0.499024         0.148506
 C         2.507244        -0.316607        -1.012186
 C         2.468540         0.400762        -2.345544
 C         2.416025         1.898149        -1.823287
 C         2.227826         1.669992        -0.378957
 O         2.036938         2.824615         0.355166
 H        -0.370693         0.580839         0.975067
 H        -0.470228         0.452570        -0.839206
 H        -0.155023        -1.035919         0.244466
 H         4.098995         0.741384         0.557724
 H         2.769159        -1.359599        -0.908949
 H         3.393632         0.205704        -2.948303
 H         1.549637        -0.020979        -2.797713
 H         3.374700         2.326469        -2.082959
 H         1.604255         2.544362        -2.260742
 H         1.893422         2.432208         1.260804
