19
Iteration:  4593
 C        -0.106676         0.222523         0.155251
 C         1.394005         0.355467        -0.066541
 O         2.367516         0.143595         1.203647
 C         3.239738         0.494687         0.053085
 C         2.434870        -0.372746        -0.986865
 C         2.643159         0.481723        -2.366401
 C         2.410744         1.868651        -1.784370
 C         2.167882         1.629569        -0.355448
 O         1.897857         2.796006         0.348191
 H        -0.507301         1.184920         0.516756
 H        -0.690037         0.057239        -0.801222
 H        -0.614875        -0.589620         0.832106
 H         4.307075         0.574913         0.313997
 H         2.615156        -1.423647        -0.959037
 H         3.735515         0.223541        -2.690346
 H         2.085864         0.053266        -3.236818
 H         3.209407         2.598506        -1.872048
 H         1.445197         2.427620        -2.169554
 H         1.849201         2.839501         1.317935
