19
Iteration:  3474charge 0 multiplicity 1
 C        -0.140897         0.140896         0.172319
 C         1.367537         0.285335        -0.026730
 O         2.251304         0.147257         1.141016
 C         3.250943         0.645040         0.072956
 C         2.486501        -0.333199        -0.896021
 C         2.633227         0.452249        -2.320611
 C         2.421291         1.885566        -1.896755
 C         2.147359         1.635647        -0.403935
 O         2.015696         2.822180         0.362120
 H        -0.397835         0.586107         1.114682
 H        -0.791476         0.535677        -0.616947
 H        -0.381768        -0.972543         0.457234
 H         4.375187         0.698602         0.249413
 H         2.596682        -1.445660        -0.959317
 H         3.680810         0.245699        -2.732698
 H         1.949592         0.156033        -3.126009
 H         3.240057         2.524098        -1.896469
 H         1.478320         2.338887        -2.363839
 H         1.871435         2.428467         1.273062
