19
Iteration:   545
 C        -0.123965         0.073915        -0.058487
 C         1.376534         0.382338        -0.023619
 O         2.264371         0.166169         1.254925
 C         3.280928         0.536138         0.080782
 C         2.556842        -0.346654        -0.875517
 C         2.461965         0.440813        -2.349052
 C         2.296370         1.962303        -1.774648
 C         2.276948         1.645821        -0.331641
 O         2.082300         2.811987         0.302391
 H        -0.649006         0.732575         0.657062
 H        -0.579091         0.133568        -1.062285
 H        -0.241286        -0.886676         0.342744
 H         4.352451         0.614804         0.350713
 H         2.610982        -1.473268        -0.743499
 H         3.387419         0.276248        -3.000785
 H         1.491355         0.217187        -2.826227
 H         3.125907         2.710374        -2.014240
 H         1.274495         2.365373        -1.985390
 H         2.063829         2.467700         1.219047
