19
Iteration:  1892
 C        -0.013896         0.240956         0.096550
 C         1.455029         0.351530        -0.027033
 O         2.339901         0.159607         1.148271
 C         3.243304         0.444667         0.135653
 C         2.435545        -0.298599        -1.026687
 C         2.584940         0.455626        -2.326024
 C         2.407464         1.869355        -1.835867
 C         2.158786         1.641860        -0.363383
 O         1.851842         2.781374         0.421022
 H        -0.266368         1.089762         0.789852
 H        -0.451542         0.462530        -0.980111
 H        -0.247923        -0.777676         0.475494
 H         4.263424         0.270209         0.450224
 H         2.348528        -1.417689        -0.980527
 H         3.492273         0.372934        -3.031043
 H         1.703218         0.131803        -2.933967
 H         3.194525         2.654558        -2.015441
 H         1.465247         2.319510        -2.207728
 H         2.060490         2.514277         1.354353
