19
Iteration:  4339
 C        -0.034816         0.073563        -0.163057
 C         1.401097         0.414477        -0.111119
 O         2.383575         0.089780         1.268476
 C         3.228953         0.614309         0.110348
 C         2.453316        -0.274670        -0.932321
 C         2.463323         0.360847        -2.304629
 C         2.297043         1.813515        -1.831371
 C         2.185183         1.649115        -0.305820
 O         2.038534         2.958345         0.478670
 H        -0.631245         0.872713         0.531625
 H        -0.708184        -0.001316        -1.008176
 H        -0.234091        -0.851803         0.381523
 H         4.304592         0.661814         0.261520
 H         2.598116        -1.393037        -0.937942
 H         3.382213        -0.018869        -2.831239
 H         1.722660        -0.140490        -2.970309
 H         3.154392         2.451339        -2.242836
 H         1.462100         2.457407        -2.165815
 H         2.156277         2.528049         1.357738
