19
Iteration:  3744
 C        -0.044057         0.071464        -0.064714
 C         1.431095         0.279984        -0.022069
 O         2.264964         0.193935         1.202937
 C         3.207383         0.569352         0.112602
 C         2.493973        -0.307947        -0.948377
 C         2.430587         0.465252        -2.341611
 C         2.365257         1.924105        -1.739770
 C         2.229566         1.667175        -0.305432
 O         2.055020         2.815872         0.395377
 H        -0.674061         0.710502         0.494274
 H        -0.367198         0.082538        -1.114993
 H        -0.247455        -1.062566         0.172878
 H         4.275603         0.480826         0.383815
 H         2.641746        -1.389366        -0.887165
 H         3.273019         0.317741        -2.999301
 H         1.523680         0.254936        -3.032679
 H         3.186809         2.516420        -2.254057
 H         1.609711         2.514098        -2.103568
 H         2.179607         2.531693         1.355352
