19
Iteration:  1065charge 0 multiplicity 1
 C        -0.056936         0.110030         0.105932
 C         1.399585         0.281282        -0.043756
 O         2.237254         0.107256         1.210699
 C         3.215019         0.564949         0.065006
 C         2.527097        -0.294174        -0.932854
 C         2.565135         0.411392        -2.311220
 C         2.382608         1.949330        -1.859387
 C         2.173893         1.685950        -0.370053
 O         2.038511         2.812690         0.356263
 H        -0.424360         0.955818         0.746754
 H        -0.712119         0.313403        -0.814999
 H        -0.509707        -0.719725         0.606058
 H         4.311256         0.717556         0.256836
 H         2.783645        -1.390185        -0.897941
 H         3.393760         0.321225        -2.872631
 H         1.692119         0.138001        -2.935801
 H         3.173778         2.709382        -2.140635
 H         1.420220         2.272559        -2.299640
 H         1.871397         2.595995         1.304659
