19
Iteration:  2681charge 0 multiplicity 1
 C        -0.066148         0.137464         0.051263
 C         1.452348         0.340592        -0.034571
 O         2.275755         0.103948         1.167579
 C         3.227717         0.547396         0.141816
 C         2.522766        -0.277893        -0.905491
 C         2.440885         0.432972        -2.306295
 C         2.398135         1.945137        -1.818473
 C         2.213210         1.668169        -0.406146
 O         1.986265         2.834802         0.322801
 H        -0.443262         0.609770         0.892401
 H        -0.567397         0.460417        -0.840397
 H        -0.113116        -0.978291         0.286880
 H         4.263896         0.443416         0.472742
 H         2.664462        -1.333571        -0.895022
 H         3.232169         0.009615        -2.958024
 H         1.489384         0.035458        -2.662234
 H         3.450930         2.253209        -1.801942
 H         1.814650         2.709067        -2.292085
 H         1.634834         2.392669         1.150457
