19
Iteration:   273charge 0 multiplicity 1
 C        -0.141959         0.192838         0.095999
 C         1.396859         0.308362         0.007988
 O         2.290397         0.181353         1.224068
 C         3.277244         0.571267         0.081320
 C         2.471588        -0.328494        -0.972671
 C         2.594682         0.430574        -2.329721
 C         2.346345         1.892799        -1.913894
 C         2.209927         1.695487        -0.359591
 O         1.951999         2.764264         0.389862
 H        -0.543985         0.966443         0.876311
 H        -0.554291         0.364346        -0.901356
 H        -0.412780        -0.843528         0.493170
 H         4.359362         0.469427         0.220431
 H         2.800834        -1.412724        -0.921257
 H         3.595850         0.288867        -2.734972
 H         1.895866         0.040283        -3.110377
 H         3.362863         2.271106        -2.070311
 H         1.538874         2.403647        -2.362635
 H         2.103302         2.314323         1.245238
