19
Iteration:   514charge 0 multiplicity 1
 C        -0.021934         0.242914         0.019102
 C         1.493932         0.369288        -0.059128
 O         2.247657         0.104279         1.194417
 C         3.220377         0.600673        -0.010963
 C         2.517082        -0.390222        -0.911543
 C         2.578643         0.298549        -2.352164
 C         2.195876         1.858534        -1.925743
 C         2.232842         1.713012        -0.386958
 O         1.988918         2.869633         0.600219
 H        -0.351037         1.084917         0.616572
 H        -0.464691         0.475210        -1.000741
 H        -0.364599        -0.667708         0.438775
 H         4.248317         0.572353         0.343812
 H         2.587528        -1.574433        -0.664397
 H         3.606766         0.287535        -2.558366
 H         2.066907        -0.053227        -3.326213
 H         2.927392         2.611279        -2.257910
 H         1.260872         2.152447        -2.357460
 H         1.980463         2.359816         1.453806
