19
Iteration:  2019
 C        -0.109015        -0.058086         0.092927
 C         1.365957         0.347063        -0.120127
 O         2.221001         0.100591         1.108048
 C         3.174687         0.586830         0.179970
 C         2.494841        -0.277386        -0.961823
 C         2.415552         0.404237        -2.337032
 C         2.466376         1.971410        -1.831093
 C         2.299142         1.775802        -0.392163
 O         2.113442         2.865919         0.425246
 H        -0.527778         0.637839         0.891247
 H        -0.658501        -0.087279        -0.769735
 H         0.001991        -1.024924         0.583666
 H         4.158205         0.781584         0.658857
 H         2.392081        -1.428533        -0.864139
 H         3.167171         0.086772        -2.965961
 H         1.428933         0.160805        -2.880491
 H         3.477052         2.406656        -2.053810
 H         1.698611         2.611057        -2.209414
 H         2.108852         2.541048         1.371013
