19
Iteration:  2129
 C        -0.062862         0.181015         0.005005
 C         1.330612         0.352129        -0.065146
 O         2.357841         0.098018         1.250376
 C         3.241273         0.547921         0.101514
 C         2.424244        -0.331254        -0.925701
 C         2.668966         0.460260        -2.385546
 C         2.191982         1.896750        -1.860580
 C         2.209105         1.656344        -0.314530
 O         2.080867         2.794107         0.409008
 H        -0.467816         0.963746         0.722925
 H        -0.545481         0.307103        -0.929506
 H        -0.340701        -0.820816         0.245383
 H         4.293953         0.755217         0.321203
 H         2.308736        -1.491233        -0.844033
 H         3.647833         0.383905        -2.684633
 H         1.961959         0.215410        -3.253044
 H         2.841345         2.791034        -2.102948
 H         1.222075         2.175602        -2.129457
 H         1.911557         2.427382         1.315247
