19
Iteration:  3423
 C        -0.038988        -0.047750        -0.111399
 C         1.385552         0.430770         0.003044
 O         2.288135         0.162604         1.140804
 C         3.220617         0.622866         0.153898
 C         2.483782        -0.278652        -0.874248
 C         2.307355         0.324380        -2.210033
 C         2.386923         1.882663        -1.858534
 C         2.287940         1.749601        -0.344872
 O         2.098506         2.884208         0.397565
 H        -0.904509         0.481514         0.394440
 H        -0.233710         0.176763        -1.218153
 H        -0.152804        -1.057339         0.108119
 H         4.173289         0.851593         0.563119
 H         2.736012        -1.346193        -0.820485
 H         3.040802         0.052199        -2.986114
 H         1.421476        -0.113124        -2.723937
 H         3.470967         2.102959        -2.152188
 H         1.605608         2.534698        -2.301052
 H         2.146996         2.513658         1.301235
