19
Iteration:  1018charge 0 multiplicity 1
 C        -0.018482         0.432697         0.049569
 C         1.447550         0.331583        -0.072398
 O         2.331981         0.024800         1.185657
 C         3.236746         0.568863         0.021928
 C         2.546297        -0.311463        -0.937863
 C         2.639501         0.389075        -2.271969
 C         2.194696         1.802389        -1.945439
 C         2.293281         1.735844        -0.345445
 O         1.839154         2.761876         0.523694
 H        -0.518110         1.239707         0.683899
 H        -0.391589         0.535591        -0.903709
 H        -0.445583        -0.573274         0.421570
 H         4.211974         0.501591         0.304830
 H         2.741339        -1.347689        -0.951741
 H         3.657286         0.297443        -2.701103
 H         1.972574        -0.290567        -2.869617
 H         2.868867         2.610773        -2.358787
 H         1.144995         1.946649        -2.466269
 H         1.831980         2.246652         1.383756
