19
Iteration:  4448
 C        -0.080511         0.033831         0.033166
 C         1.390100         0.351541        -0.112385
 O         2.226620         0.195569         1.195177
 C         3.257476         0.556727         0.090776
 C         2.565529        -0.338981        -0.994914
 C         2.533298         0.428225        -2.283410
 C         2.339746         1.884609        -1.749051
 C         2.211664         1.689653        -0.316675
 O         2.028560         2.858977         0.332914
 H        -0.374544         0.766859         0.898386
 H        -0.553380         0.348352        -0.886104
 H        -0.283772        -1.012960         0.338970
 H         4.321903         0.608447         0.328666
 H         2.437329        -1.406112        -0.778191
 H         3.386938         0.072729        -2.884034
 H         1.615770         0.120784        -2.850928
 H         3.302268         2.491138        -1.943129
 H         1.438040         2.283263        -2.116274
 H         1.906284         2.734166         1.297386
