19
Iteration:  3624charge 0 multiplicity 1
 C        -0.077599        -0.076944         0.118802
 C         1.380501         0.328335        -0.084684
 O         2.187395         0.088688         1.128760
 C         3.178425         0.560160         0.123980
 C         2.493638        -0.260643        -0.951749
 C         2.548575         0.407524        -2.274658
 C         2.389858         1.976678        -1.900396
 C         2.164871         1.719978        -0.364753
 O         2.141685         2.940822         0.406774
 H        -0.504409         0.556915         0.882520
 H        -0.603659         0.070295        -0.803034
 H        -0.181754        -1.199973         0.464879
 H         4.268253         0.700077         0.422354
 H         2.420102        -1.356961        -0.879115
 H         3.428599         0.295451        -2.857795
 H         1.673666        -0.081899        -2.800803
 H         3.439510         2.466359        -2.073013
 H         1.759867         2.715397        -2.384156
 H         1.980368         2.648765         1.326274
