19
Iteration:  3996charge 0 multiplicity 1
 C         0.026556         0.099678        -0.020377
 C         1.466305         0.381138        -0.060938
 O         2.274294         0.040022         1.151183
 C         3.213790         0.596778         0.163097
 C         2.403525        -0.272142        -0.961349
 C         2.487178         0.427203        -2.350021
 C         2.371941         1.891768        -1.821669
 C         2.208828         1.713767        -0.312802
 O         1.964279         2.829594         0.464462
 H        -0.557807         0.815859         0.489232
 H        -0.334526         0.080353        -1.060157
 H        -0.236247        -0.770802         0.548606
 H         4.326551         0.604793         0.312723
 H         2.509517        -1.325332        -1.018625
 H         3.408909         0.115767        -2.799709
 H         1.732655         0.046212        -3.131268
 H         3.186104         2.611656        -2.235707
 H         1.480937         2.435227        -2.011512
 H         2.411204         2.556898         1.297543
