19
Iteration:  4221
 C        -0.058579         0.267690         0.115486
 C         1.414992         0.344094        -0.028189
 O         2.186177         0.097398         1.219065
 C         3.337563         0.523917         0.089507
 C         2.601396        -0.307832        -1.006071
 C         2.617512         0.431868        -2.388270
 C         2.237383         1.817537        -1.903076
 C         2.267879         1.676271        -0.333220
 O         1.919773         2.784359         0.433386
 H        -0.351050         1.097131         0.800188
 H        -0.547190         0.481314        -0.798118
 H        -0.672615        -0.614240         0.465401
 H         4.396085         0.434611         0.321573
 H         2.699946        -1.391170        -0.912350
 H         3.631567         0.470479        -2.913915
 H         1.977527         0.129470        -3.214717
 H         2.776963         2.653513        -2.221088
 H         1.156264         2.229566        -2.006773
 H         2.104851         2.495883         1.356437
