19
Iteration:  3982
 C        -0.134685        -0.029961         0.045817
 C         1.354884         0.348009        -0.009045
 O         2.217555         0.089182         1.131349
 C         3.212420         0.584641         0.001817
 C         2.505600        -0.292050        -0.988225
 C         2.518485         0.428586        -2.343863
 C         2.412187         1.923083        -1.811562
 C         2.311281         1.735207        -0.307416
 O         2.013635         2.875128         0.498138
 H        -0.663769         0.798251         0.457618
 H        -0.502112        -0.178859        -0.939795
 H        -0.240384        -1.092022         0.539947
 H         4.247251         0.622869         0.273367
 H         2.589753        -1.330848        -0.676008
 H         3.449356         0.429971        -2.937109
 H         1.628032         0.214375        -2.938215
 H         3.378034         2.438739        -1.947687
 H         1.611772         2.458131        -2.389008
 H         2.522166         2.983209         1.305255
