19
Iteration:  3490
 C        -0.107111         0.184667         0.246433
 C         1.374594         0.351253        -0.087540
 O         2.338904         0.060008         1.161038
 C         3.085089         0.546164         0.053845
 C         2.499714        -0.308141        -1.039770
 C         2.757700         0.340868        -2.267486
 C         2.328911         1.886740        -1.899178
 C         2.218063         1.753089        -0.362589
 O         1.918535         2.835130         0.405287
 H        -0.420280         0.912031         1.104715
 H        -0.635669         0.607814        -0.661264
 H        -0.522465        -0.764786         0.351008
 H         4.159463         0.612631         0.182006
 H         2.649571        -1.356560        -0.804059
 H         3.796799         0.263518        -2.584323
 H         2.222289        -0.044478        -3.174211
 H         3.157255         2.636919        -2.271347
 H         1.445622         2.164724        -2.425862
 H         2.027445         2.729276         1.364691
