19
Iteration:  3559
 C        -0.025811         0.154295        -0.078320
 C         1.416817         0.379216         0.002944
 O         2.286001         0.104178         1.185696
 C         3.205538         0.689178         0.051023
 C         2.536039        -0.274945        -0.917963
 C         2.495913         0.304259        -2.305923
 C         2.314558         1.869770        -1.852963
 C         2.211788         1.690433        -0.304515
 O         2.023033         2.804624         0.495324
 H        -0.521096         1.059815         0.241585
 H        -0.195673         0.061332        -1.130915
 H        -0.479823        -0.835337         0.336816
 H         4.343973         0.692041         0.121196
 H         2.538667        -1.383885        -0.906225
 H         3.247241         0.013569        -3.007873
 H         1.620322        -0.157544        -2.766483
 H         3.186080         2.529305        -2.194251
 H         1.419010         2.383103        -2.254271
 H         1.927580         2.495844         1.410204
