19
Iteration:  1773
 C        -0.005668         0.269477         0.002710
 C         1.422454         0.272083        -0.019067
 O         2.293875         0.110003         1.147191
 C         3.215473         0.620425         0.105849
 C         2.567248        -0.330777        -0.933832
 C         2.501471         0.399974        -2.235041
 C         2.266790         1.887314        -1.837358
 C         2.207992         1.659443        -0.375040
 O         2.000041         2.767736         0.420856
 H        -0.538487         0.869147         0.751800
 H        -0.329932         0.524583        -1.073510
 H        -0.504115        -0.692465         0.154759
 H         4.383597         0.888749         0.201440
 H         2.563549        -1.451835        -0.971056
 H         3.460837         0.184372        -2.836514
 H         1.713828        -0.006872        -2.817358
 H         3.074964         2.464857        -2.313591
 H         1.409982         2.526210        -2.141007
 H         1.842785         2.452875         1.330370
