19
Iteration:  4310charge 0 multiplicity 1
 C        -0.042909        -0.026865        -0.011440
 C         1.406385         0.349088         0.030785
 O         2.184825         0.226172         1.167671
 C         3.202454         0.577709         0.065239
 C         2.540212        -0.295967        -0.918425
 C         2.406624         0.471250        -2.192179
 C         2.383938         1.900747        -1.828334
 C         2.256053         1.640333        -0.438860
 O         2.099741         2.840046         0.393478
 H        -0.613196         0.626101         0.606748
 H        -0.313899         0.241369        -1.056241
 H        -0.005044        -1.217443         0.089896
 H         4.204361         0.627975         0.492267
 H         2.671802        -1.331884        -1.056972
 H         3.238703         0.164614        -2.925492
 H         1.496501         0.174901        -2.755152
 H         3.281447         2.339693        -2.150363
 H         1.502596         2.699418        -2.114479
 H         2.036222         2.369271         1.281732
