19
Iteration:  2374
 C        -0.014814         0.012636        -0.008008
 C         1.414099         0.398047        -0.066329
 O         2.204535         0.154475         1.135180
 C         3.256492         0.635698         0.096209
 C         2.433929        -0.249020        -0.920975
 C         2.355417         0.362127        -2.285638
 C         2.550656         1.888628        -1.808402
 C         2.261695         1.713839        -0.342581
 O         2.046765         2.821259         0.420505
 H        -0.551546         0.545925         0.734639
 H        -0.701128         0.057746        -0.883293
 H         0.125297        -1.085859         0.367550
 H         4.250284         0.800292         0.506180
 H         2.438752        -1.366228        -0.823269
 H         3.050039        -0.065873        -3.052007
 H         1.351236         0.300757        -2.683115
 H         3.461535         2.401172        -2.058849
 H         1.690126         2.377262        -2.326582
 H         1.665140         2.429397         1.223977
