19
Iteration:  1694charge 0 multiplicity 1
 C        -0.129234         0.080905         0.131412
 C         1.303830         0.396536         0.026492
 O         2.295387         0.156636         1.189058
 C         3.186594         0.571279         0.097400
 C         2.510993        -0.407729        -1.013874
 C         2.628819         0.469409        -2.391768
 C         2.349251         1.871220        -1.859951
 C         2.149272         1.658209        -0.356166
 O         2.097839         2.879683         0.385499
 H        -0.774355         0.796754         0.818647
 H        -0.596673         0.090167        -0.846788
 H        -0.238112        -0.917262         0.565339
 H         4.295789         0.643646         0.425261
 H         2.721932        -1.425716        -1.144348
 H         3.634658         0.224739        -2.741772
 H         1.896313         0.138980        -3.123790
 H         3.230143         2.450457        -1.987873
 H         1.458810         2.413519        -2.183111
 H         1.972136         2.472893         1.290295
