19
Iteration:  1988charge 0 multiplicity 1
 C        -0.064714        -0.025895         0.027024
 C         1.401863         0.322849        -0.024411
 O         2.234437         0.095268         1.199719
 C         3.144704         0.545504         0.119602
 C         2.453775        -0.318359        -0.926781
 C         2.496248         0.478929        -2.396254
 C         2.312566         1.916199        -1.815242
 C         2.174117         1.735327        -0.340061
 O         2.239461         2.915872         0.409297
 H        -0.522898         0.660876         0.742885
 H        -0.449202         0.046347        -0.958600
 H        -0.037798        -1.051965         0.271058
 H         4.127757         0.731003         0.429916
 H         2.415911        -1.430027        -1.082993
 H         3.460090         0.334705        -2.815414
 H         1.729826         0.038673        -3.080797
 H         3.312766         2.448512        -2.024451
 H         1.546654         2.516711        -2.283297
 H         1.701798         2.817548         1.203467
