19
Iteration:  2219charge 0 multiplicity 1
 C        -0.042048         0.088876         0.012041
 C         1.391573         0.361935        -0.096840
 O         2.391537         0.077015         1.134518
 C         3.185550         0.569820         0.112369
 C         2.402290        -0.293630        -0.963579
 C         2.449999         0.393307        -2.224702
 C         2.460226         1.882478        -1.801362
 C         2.222964         1.700314        -0.382873
 O         1.975778         2.906273         0.450366
 H        -0.619477         0.711565         0.618063
 H        -0.415972         0.113137        -1.062874
 H        -0.183104        -0.955169         0.218293
 H         4.251879         0.721258         0.244635
 H         2.558919        -1.459748        -0.835415
 H         3.208767        -0.039507        -2.852141
 H         1.434618         0.220146        -2.684927
 H         3.463733         2.341287        -2.065991
 H         1.733708         2.519670        -2.312665
 H         1.732484         2.803362         1.384676
