19
Iteration:  3649
 C        -0.120168         0.078241         0.172109
 C         1.381742         0.425975        -0.045599
 O         2.256241         0.048409         1.131150
 C         3.173390         0.612677         0.093520
 C         2.436103        -0.337353        -1.032779
 C         2.685598         0.454234        -2.336721
 C         2.409322         1.841073        -1.877720
 C         2.222779         1.657231        -0.281570
 O         1.982521         2.867493         0.399022
 H        -0.403562         0.613424         1.050576
 H        -0.779769         0.442137        -0.675669
 H        -0.274379        -1.015797         0.367431
 H         4.274815         0.673169         0.296526
 H         2.443479        -1.415122        -0.883560
 H         3.728722         0.526918        -2.700495
 H         2.135856         0.081166        -3.182396
 H         2.995832         2.622843        -2.283139
 H         1.371112         2.260276        -2.205027
 H         2.305367         2.911331         1.304681
