19
Iteration:  3736
 C        -0.038275         0.101215        -0.096698
 C         1.432195         0.303392        -0.055694
 O         2.297591         0.187965         1.212335
 C         3.242912         0.554659         0.150330
 C         2.492063        -0.344454        -1.009508
 C         2.426681         0.407350        -2.307294
 C         2.333032         1.937412        -1.794473
 C         2.189661         1.675137        -0.331320
 O         2.024009         2.810794         0.445912
 H        -0.531132         0.787606         0.579476
 H        -0.417390         0.325177        -1.149773
 H        -0.323464        -0.879660         0.250425
 H         4.333879         0.554685         0.470969
 H         2.811722        -1.373410        -1.020389
 H         3.343567         0.298844        -2.852426
 H         1.575281         0.126406        -2.918146
 H         3.292701         2.500866        -1.954968
 H         1.396355         2.492181        -2.116849
 H         2.317760         2.712656         1.386981
