19
Iteration:  1702
 C        -0.193889         0.106922         0.152659
 C         1.365058         0.362154        -0.008397
 O         2.369413         0.148829         1.163039
 C         3.188029         0.541506         0.050675
 C         2.488195        -0.319543        -1.036415
 C         2.632348         0.408250        -2.326413
 C         2.357474         1.893886        -1.806181
 C         2.195338         1.653021        -0.367544
 O         2.029811         2.850051         0.394280
 H        -0.605095         0.921742         0.835032
 H        -0.641713         0.257135        -0.811647
 H        -0.593789        -0.853244         0.618732
 H         4.134420         0.698437         0.363457
 H         2.624247        -1.421291        -1.017363
 H         3.654661         0.329730        -2.627653
 H         1.958836        -0.021551        -3.146514
 H         3.244890         2.506267        -1.987845
 H         1.648791         2.339193        -2.463509
 H         1.686634         2.650165         1.286840
