19
Iteration:   109
 C         0.010883         0.268890         0.071691
 C         1.438684         0.381411        -0.013863
 O         2.331421         0.111234         1.217782
 C         3.184103         0.475489         0.028296
 C         2.523853        -0.327182        -0.957575
 C         2.632960         0.378578        -2.295201
 C         2.296650         1.852814        -1.865233
 C         2.100439         1.673506        -0.391001
 O         1.896540         2.845504         0.407991
 H        -0.560521         1.058712         0.668814
 H        -0.393812         0.350173        -0.881060
 H        -0.348869        -0.741007         0.416901
 H         4.255872         0.504738         0.234588
 H         2.600667        -1.414681        -0.866283
 H         3.645345         0.277194        -2.728509
 H         1.907551        -0.020696        -2.993083
 H         3.292472         2.380481        -1.837336
 H         1.611560         2.461690        -2.403428
 H         1.972901         2.536015         1.320730
