19
Iteration:  4046
 C         0.009440         0.349294        -0.019772
 C         1.479427         0.324079        -0.095010
 O         2.306394         0.080724         1.168806
 C         3.219369         0.603923         0.124653
 C         2.539730        -0.360663        -0.964532
 C         2.574777         0.441812        -2.331988
 C         2.196631         1.824079        -1.855506
 C         2.219557         1.682651        -0.325659
 O         1.937176         2.721443         0.502260
 H        -0.316774         1.051993         0.818531
 H        -0.427884         0.847559        -0.886922
 H        -0.536129        -0.666313         0.201825
 H         4.216628         0.778817         0.504978
 H         2.644086        -1.468819        -0.981732
 H         3.576893         0.372566        -2.849738
 H         1.867559        -0.032091        -2.983940
 H         2.917716         2.543327        -2.131839
 H         1.225400         2.175739        -2.346756
 H         1.955911         2.316937         1.403360
