19
Iteration:   184
 C        -0.113303         0.055281         0.004019
 C         1.385004         0.347585        -0.034885
 O         2.297242         0.104981         1.230701
 C         3.131753         0.608181         0.092842
 C         2.503652        -0.271813        -0.939874
 C         2.538980         0.369920        -2.266408
 C         2.336710         1.887374        -1.825682
 C         2.277116         1.706777        -0.346112
 O         2.075201         2.852414         0.348232
 H        -0.791630         0.877719         0.584913
 H        -0.499356         0.260968        -0.985873
 H        -0.516891        -0.996036         0.352182
 H         4.235079         0.669030         0.073994
 H         2.688127        -1.317038        -0.851420
 H         3.557079         0.277037        -2.795834
 H         1.758915         0.056940        -2.938173
 H         3.227613         2.472301        -2.308318
 H         1.403315         2.355618        -2.029945
 H         2.148714         2.728044         1.300861
