19
Iteration:  2509
 C        -0.037265         0.112058         0.089012
 C         1.421021         0.374525        -0.069874
 O         2.232150         0.183253         1.202158
 C         3.215118         0.577507         0.180106
 C         2.435193        -0.326713        -1.077191
 C         2.421995         0.359547        -2.377747
 C         2.495989         1.852079        -1.877805
 C         2.310771         1.714018        -0.296501
 O         1.899097         2.810144         0.447724
 H        -0.541858         0.629870         0.943736
 H        -0.425391         0.236950        -0.905366
 H         0.010902        -0.957931         0.148308
 H         4.294567         0.743334         0.508131
 H         2.764164        -1.365380        -1.064963
 H         3.347232        -0.024687        -2.911266
 H         1.589862         0.178740        -2.982492
 H         3.470414         2.323436        -2.023142
 H         1.783722         2.566155        -2.365329
 H         2.328029         2.962644         1.285817
