19
Iteration:  4873charge 0 multiplicity 1
 C        -0.120954         0.055326         0.086303
 C         1.372050         0.346031        -0.069947
 O         2.279931         0.141006         1.177038
 C         3.197045         0.629958         0.129628
 C         2.412410        -0.296638        -0.932684
 C         2.556087         0.436404        -2.296157
 C         2.375903         1.917083        -1.879232
 C         2.284175         1.698869        -0.358021
 O         2.030046         2.777779         0.371950
 H        -0.349820         0.593120         1.035453
 H        -0.423166         0.529508        -0.834428
 H        -0.209728        -1.053267        -0.051361
 H         4.247221         0.499480         0.578983
 H         2.635363        -1.372003        -0.907579
 H         3.578483         0.278011        -2.715915
 H         1.718511         0.076309        -2.969518
 H         3.236835         2.606925        -2.250926
 H         1.520388         2.315405        -2.292111
 H         2.048177         2.526265         1.332901
