19
Iteration:  3894
 C        -0.044245         0.257992        -0.018654
 C         1.521873         0.279297         0.023174
 O         2.264223         0.089734         1.173950
 C         3.211159         0.618251         0.051031
 C         2.572360        -0.277535        -1.005611
 C         2.501810         0.443358        -2.308838
 C         2.275508         1.844848        -1.746508
 C         2.224576         1.666497        -0.321842
 O         1.939836         2.723581         0.408892
 H        -0.523037         0.854118         0.738257
 H        -0.243722         0.717340        -0.941398
 H        -0.611565        -0.765965        -0.179115
 H         4.209322         0.612111         0.407534
 H         2.559606        -1.370000        -0.945421
 H         3.513071         0.581452        -2.758355
 H         1.771874         0.192462        -3.080843
 H         3.131311         2.520188        -1.948891
 H         1.239564         2.240736        -2.059215
 H         2.416859         2.547187         1.240633
