19
Iteration:  3400
 C        -0.038520         0.039878        -0.125165
 C         1.445324         0.266857        -0.035041
 O         2.286620         0.200807         1.336637
 C         3.229912         0.631283         0.085587
 C         2.461930        -0.346233        -0.966129
 C         2.444374         0.395203        -2.288581
 C         2.293735         1.896219        -1.831073
 C         2.146649         1.676850        -0.261249
 O         2.155697         2.896105         0.356590
 H        -0.715785         0.811073         0.286163
 H        -0.302267         0.057715        -1.245193
 H        -0.349236        -0.910387         0.327516
 H         4.262756         0.711714         0.408929
 H         2.662258        -1.430273        -0.731380
 H         3.163323         0.123707        -3.123328
 H         1.551428         0.081171        -2.903238
 H         3.257196         2.357265        -2.035329
 H         1.425110         2.284273        -2.465384
 H         2.058714         2.790669         1.327158
