19
Iteration:  1952
 C        -0.046800         0.211148        -0.060452
 C         1.422818         0.384946         0.005042
 O         2.278602         0.128276         1.187230
 C         3.231388         0.473761         0.038617
 C         2.531748        -0.367988        -0.963279
 C         2.572413         0.400756        -2.319252
 C         2.231809         1.867863        -1.885368
 C         2.252487         1.706691        -0.340318
 O         1.993568         2.850124         0.521876
 H        -0.562508         0.752555         0.757061
 H        -0.592120         0.496610        -0.891036
 H        -0.452287        -0.742954         0.253329
 H         4.322914         0.421596         0.376461
 H         2.577068        -1.439328        -0.879622
 H         3.490129         0.572449        -2.808080
 H         1.900635        -0.135535        -2.997012
 H         2.930799         2.580451        -2.294377
 H         1.214395         2.231619        -2.079777
 H         2.353599         2.625030         1.388548
