19
Iteration:   191
 C        -0.110401         0.034733        -0.030373
 C         1.376291         0.360848        -0.018858
 O         2.292210         0.153176         1.192691
 C         3.191595         0.594306         0.079728
 C         2.466439        -0.283011        -0.923187
 C         2.462195         0.424563        -2.240924
 C         2.340755         1.868749        -1.741368
 C         2.240366         1.659682        -0.322391
 O         2.109409         2.843139         0.287887
 H        -0.597046         0.733015         0.583879
 H        -0.368377         0.115145        -1.146582
 H        -0.171248        -0.985908         0.268616
 H         4.284227         0.637551         0.262806
 H         2.580006        -1.356386        -0.821632
 H         3.507567         0.307381        -2.645513
 H         1.821395        -0.004731        -3.015815
 H         3.206103         2.482159        -2.081353
 H         1.506001         2.560172        -2.102848
 H         2.083500         2.795968         1.247287
