19
Iteration:  4411
 C        -0.078493         0.188667         0.201244
 C         1.450454         0.361907        -0.034754
 O         2.210234         0.093910         1.149009
 C         3.256526         0.578565        -0.012491
 C         2.503214        -0.226146        -0.945292
 C         2.674126         0.336249        -2.274271
 C         2.376597         1.874727        -1.912105
 C         2.216596         1.713193        -0.403203
 O         1.879326         2.768884         0.471479
 H        -0.428696         1.002380         0.754022
 H        -0.639383         0.307771        -0.802931
 H        -0.437808        -0.749898         0.607153
 H         4.355099         0.696230         0.163419
 H         2.512573        -1.363323        -0.891868
 H         3.676168         0.247198        -2.672070
 H         2.059541         0.162177        -3.159362
 H         3.076127         2.705573        -2.251400
 H         1.478237         2.143216        -2.554450
 H         2.008562         2.258982         1.322064
