19
Iteration:  3512charge 0 multiplicity 1
 C        -0.018710         0.280209         0.154090
 C         1.470189         0.403579        -0.029414
 O         2.209847         0.063264         1.153435
 C         3.322325         0.465266         0.102323
 C         2.452276        -0.310659        -0.990028
 C         2.725823         0.459595        -2.328545
 C         2.246601         1.805191        -1.860810
 C         2.197855         1.637901        -0.398328
 O         1.858653         2.816707         0.376292
 H        -0.135786         1.106971         0.990237
 H        -0.736359         0.544693        -0.665968
 H        -0.345963        -0.680084         0.483181
 H         4.280509         0.694523         0.533583
 H         2.536237        -1.377514        -0.741534
 H         3.814603         0.402904        -2.527095
 H         2.314990         0.067158        -3.304188
 H         2.820762         2.782888        -2.212677
 H         1.265971         1.977466        -2.237965
 H         2.211459         2.644391         1.278319
