19
Iteration:  3564
 C        -0.001517         0.144855        -0.091621
 C         1.420819         0.363714         0.021269
 O         2.278884         0.116849         1.174441
 C         3.225970         0.641671         0.043439
 C         2.489097        -0.266767        -0.915263
 C         2.468928         0.334593        -2.253669
 C         2.352818         1.868288        -1.877095
 C         2.202465         1.706206        -0.369665
 O         2.013514         2.832496         0.519786
 H        -0.780807         0.913344         0.200679
 H        -0.157035        -0.064873        -1.209043
 H        -0.269806        -0.786841         0.296473
 H         4.288466         0.631218         0.121827
 H         2.717019        -1.326998        -0.730366
 H         3.206262         0.040588        -3.068827
 H         1.561257        -0.155306        -2.689660
 H         3.229302         2.420369        -2.094385
 H         1.395032         2.370766        -2.165682
 H         2.116126         2.406510         1.418695
