19
Iteration:  2482charge 0 multiplicity 1
 C        -0.115161         0.283996         0.101315
 C         1.412507         0.332046        -0.063325
 O         2.296446         0.083246         1.162046
 C         3.323365         0.549978         0.027297
 C         2.494029        -0.341307        -0.925007
 C         2.608933         0.433794        -2.226095
 C         2.338531         1.900099        -1.863679
 C         2.139773         1.666671        -0.349618
 O         1.952169         2.769160         0.377792
 H        -0.428202         0.976155         0.882185
 H        -0.593628         0.424799        -0.907240
 H        -0.397582        -0.815768         0.367850
 H         4.365548         0.767383         0.184847
 H         2.634088        -1.466219        -0.853225
 H         3.571157         0.238430        -2.671714
 H         1.786224         0.109124        -3.002918
 H         3.290084         2.483909        -1.907945
 H         1.626779         2.355173        -2.531605
 H         1.629180         2.524688         1.260277
