19
Iteration:  2036
 C        -0.003302         0.028911         0.093499
 C         1.430634         0.400383        -0.079777
 O         2.236809         0.184903         1.249585
 C         3.177379         0.536279         0.083744
 C         2.390653        -0.323198        -0.987009
 C         2.435658         0.518166        -2.360539
 C         2.493853         1.900221        -1.848032
 C         2.202759         1.653927        -0.312613
 O         2.009092         2.797010         0.411176
 H        -0.447252         0.817966         0.670465
 H        -0.518463        -0.000828        -0.960886
 H        -0.061848        -1.047347         0.425678
 H         4.269409         0.391951         0.216187
 H         2.708759        -1.322708        -1.131917
 H         3.374458         0.299182        -3.023834
 H         1.564919         0.204168        -2.889509
 H         3.458133         2.358819        -2.021659
 H         1.719566         2.536406        -2.380493
 H         2.344943         2.622159         1.327050
