19
Iteration:  2917
 C        -0.138768        -0.068333        -0.061386
 C         1.342875         0.420892         0.020167
 O         2.266236         0.142241         1.217734
 C         3.229080         0.615755         0.128479
 C         2.466317        -0.287299        -0.964797
 C         2.576298         0.414185        -2.256066
 C         2.204711         1.838780        -1.796006
 C         2.206163         1.728729        -0.324864
 O         2.252568         2.911956         0.320848
 H        -0.935284         0.258200         0.595867
 H        -0.492276         0.086952        -1.085497
 H        -0.122322        -1.172995         0.203672
 H         4.316532         0.740025         0.336477
 H         2.420331        -1.345838        -0.986789
 H         3.609792         0.441749        -2.661919
 H         1.897027        -0.188913        -2.932422
 H         2.989808         2.436793        -2.134456
 H         1.322992         2.272630        -2.282651
 H         1.945416         2.803140         1.256221
