19
Iteration:  1325charge 0 multiplicity 1
 C        -0.089880         0.060104         0.019303
 C         1.413364         0.348796         0.004923
 O         2.235039         0.145178         1.242918
 C         3.246237         0.639223         0.100962
 C         2.527428        -0.229234        -0.932657
 C         2.415073         0.389451        -2.272370
 C         2.371081         1.886671        -1.939155
 C         2.239925         1.667791        -0.369163
 O         2.076145         2.796958         0.366780
 H        -0.717935         0.741487         0.690058
 H        -0.468881         0.181937        -1.054104
 H        -0.323857        -0.988509         0.317832
 H         4.279833         0.670177         0.382777
 H         2.743735        -1.314761        -0.747960
 H         3.326550         0.182816        -2.959274
 H         1.493626        -0.054032        -2.680934
 H         3.172875         2.557134        -2.201246
 H         1.389725         2.380480        -2.187851
 H         2.533177         2.561093         1.213359
