19
Iteration:   626
 C        -0.029014         0.139187         0.136635
 C         1.374156         0.323551        -0.043297
 O         2.233045         0.167442         1.235471
 C         3.203133         0.579984         0.090466
 C         2.459080        -0.347742        -0.952829
 C         2.588006         0.487819        -2.329223
 C         2.376542         1.960647        -1.913064
 C         2.205321         1.614489        -0.371186
 O         2.049826         2.735853         0.369516
 H        -0.472900         0.874152         0.800427
 H        -0.423285         0.345820        -0.847386
 H        -0.308113        -0.902273         0.447581
 H         4.273471         0.647635         0.253491
 H         2.508730        -1.532770        -0.733979
 H         3.481051         0.245768        -2.842621
 H         1.834159         0.276399        -3.180169
 H         3.141077         2.719633        -1.967123
 H         1.517824         2.412182        -2.393270
 H         1.682865         2.505795         1.243063
