19
Iteration:   114
 C        -0.078027         0.253808         0.127356
 C         1.430658         0.368863        -0.012065
 O         2.349739         0.160338         1.210269
 C         3.247409         0.438572         0.103563
 C         2.512846        -0.324146        -0.990120
 C         2.635522         0.397791        -2.319687
 C         2.285999         1.862866        -1.873426
 C         2.133421         1.675197        -0.404519
 O         1.874262         2.802492         0.397530
 H        -0.430029         1.131762         0.625294
 H        -0.248751         0.525314        -1.026902
 H        -0.475479        -0.675135         0.457550
 H         4.318732         0.504386         0.346460
 H         2.567341        -1.445603        -1.029299
 H         3.693285         0.444258        -2.615575
 H         1.995523        -0.130552        -3.090128
 H         3.258492         2.326577        -1.872945
 H         1.593333         2.540067        -2.540315
 H         2.008860         2.438924         1.319173
