19
Iteration:  1253charge 0 multiplicity 1
 C        -0.072917         0.047382         0.104764
 C         1.424362         0.349501        -0.064588
 O         2.207477         0.176133         1.189987
 C         3.225606         0.539614         0.092017
 C         2.540554        -0.319443        -0.943989
 C         2.501338         0.358677        -2.346306
 C         2.342916         1.873187        -1.893095
 C         2.178199         1.713034        -0.331772
 O         2.056768         2.889187         0.387890
 H        -0.441685         0.693473         0.849869
 H        -0.707114         0.176530        -0.818408
 H        -0.195113        -0.940216         0.532859
 H         4.340415         0.692901         0.320373
 H         2.689896        -1.404788        -0.895092
 H         3.432955         0.206915        -2.804096
 H         1.706276         0.079840        -3.090290
 H         3.281767         2.500170        -1.972976
 H         1.541711         2.479527        -2.246015
 H         2.324313         2.871483         1.339757
