19
Iteration:  4045charge 0 multiplicity 1
 C         0.003664         0.349351        -0.019019
 C         1.478649         0.313089        -0.095553
 O         2.302958         0.085902         1.166834
 C         3.221780         0.611310         0.116309
 C         2.539187        -0.354124        -0.969394
 C         2.568234         0.436819        -2.331167
 C         2.198156         1.826353        -1.848607
 C         2.234059         1.676914        -0.313296
 O         1.938227         2.719931         0.499855
 H        -0.340442         1.049458         0.832381
 H        -0.416623         0.837558        -0.908953
 H        -0.532040        -0.617753         0.204279
 H         4.220409         0.782233         0.524307
 H         2.679681        -1.473520        -0.994318
 H         3.569091         0.351224        -2.853567
 H         1.879352        -0.033417        -2.999644
 H         2.884642         2.558260        -2.117641
 H         1.244684         2.142181        -2.350772
 H         1.915333         2.330390         1.396704
