19
Iteration:  1716
 C        -0.086835         0.243536         0.159406
 C         1.395592         0.282733        -0.066874
 O         2.335625         0.064928         1.124756
 C         3.252678         0.579954         0.033124
 C         2.431178        -0.307720        -0.891666
 C         2.640736         0.425276        -2.270282
 C         2.409957         1.896961        -1.914996
 C         2.166161         1.688460        -0.342639
 O         1.908562         2.799806         0.389613
 H        -0.375417         1.077178         0.938300
 H        -0.633980         0.418515        -0.776439
 H        -0.327579        -0.734008         0.534686
 H         4.362018         0.496873        -0.115477
 H         2.542882        -1.347103        -0.765741
 H         3.644793         0.179436        -2.645735
 H         1.924413         0.156080        -3.039039
 H         3.240253         2.543943        -2.053333
 H         1.490538         2.347424        -2.163124
 H         1.596785         2.455240         1.248925
