19
Iteration:  1314charge 0 multiplicity 1
 C         0.060010         0.000913        -0.052090
 C         1.418601         0.396749        -0.030934
 O         2.234952         0.156705         1.131304
 C         3.154482         0.628946         0.152091
 C         2.475599        -0.302555        -0.888086
 C         2.336535         0.343257        -2.237645
 C         2.379292         1.846505        -1.855966
 C         2.205330         1.748791        -0.352651
 O         2.115318         2.903402         0.436956
 H        -0.553276         0.646173         0.671796
 H        -0.368812         0.083183        -1.096740
 H         0.050096        -1.063123         0.277365
 H         4.200085         0.719161         0.275549
 H         2.745026        -1.388887        -0.957292
 H         3.136383        -0.060140        -2.984019
 H         1.417850         0.061477        -2.816200
 H         3.266867         2.235900        -2.311795
 H         1.490106         2.306031        -2.392803
 H         2.536822         2.699400         1.300363
