19
Iteration:  2766
 C        -0.089271         0.117174         0.028180
 C         1.338191         0.365511        -0.080849
 O         2.284503         0.181777         1.206331
 C         3.190366         0.545349         0.144035
 C         2.566644        -0.327279        -0.989157
 C         2.543094         0.458833        -2.285181
 C         2.244608         1.822954        -1.902088
 C         2.236871         1.667058        -0.347170
 O         2.127287         2.839177         0.435786
 H        -0.668897         0.853924         0.525008
 H        -0.584075        -0.109168        -0.916023
 H        -0.243100        -0.899380         0.530928
 H         4.230332         0.750983         0.316304
 H         2.648424        -1.367726        -0.876807
 H         3.538077         0.442181        -2.626864
 H         1.973674        -0.068724        -3.106484
 H         3.052737         2.535119        -2.319779
 H         1.268471         2.274770        -2.011346
 H         1.721180         2.603677         1.268294
