19
Iteration:  3875charge 0 multiplicity 1
 C        -0.044856         0.406755        -0.079200
 C         1.446440         0.253770        -0.131292
 O         2.348866         0.087382         1.200598
 C         3.265752         0.532792         0.149835
 C         2.631862        -0.362892        -0.952979
 C         2.551886         0.420819        -2.317527
 C         2.161062         1.910046        -1.873670
 C         2.195045         1.569836        -0.297116
 O         1.895388         2.785628         0.501023
 H        -0.219775         0.868598         0.860429
 H        -0.425202         1.029295        -0.924751
 H        -0.548426        -0.641409         0.060851
 H         4.337896         0.695751         0.378334
 H         2.936158        -1.388452        -1.073790
 H         3.463708         0.409969        -2.939034
 H         1.671143        -0.094381        -2.922106
 H         2.911536         2.816939        -2.023895
 H         1.140250         2.107911        -2.142312
 H         2.223463         2.588307         1.395766
