19
Iteration:  3928charge 0 multiplicity 1
 C        -0.085907        -0.068150         0.058065
 C         1.357750         0.419912        -0.088131
 O         2.233049         0.124062         1.129256
 C         3.233367         0.496698         0.083583
 C         2.499531        -0.286933        -1.020346
 C         2.501708         0.419470        -2.290956
 C         2.430056         1.907888        -1.824800
 C         2.247736         1.762652        -0.369954
 O         2.084202         2.925874         0.534469
 H        -0.673242         0.453702         0.757978
 H        -0.540475         0.094922        -0.878281
 H        -0.041507        -1.140901         0.516293
 H         4.235539         0.279580         0.398745
 H         2.321331        -1.352271        -1.022073
 H         3.395821         0.390825        -2.937264
 H         1.706765         0.087562        -3.019418
 H         3.226030         2.705272        -2.019921
 H         1.539328         2.404029        -2.287595
 H         1.435929         2.609779         1.173788
