19
Iteration:   445
 C        -0.090198         0.132069         0.100188
 C         1.414065         0.461574        -0.032374
 O         2.334603         0.060745         1.104205
 C         3.233821         0.516739         0.154674
 C         2.443852        -0.315169        -0.959556
 C         2.508175         0.370798        -2.305473
 C         2.384255         1.821542        -1.795599
 C         2.238910         1.727411        -0.341179
 O         1.970021         2.897420         0.333557
 H        -0.716922         0.777354         0.751560
 H        -0.445944         0.260041        -0.858361
 H        -0.128924        -0.922660         0.397065
 H         4.297827         0.558652         0.434475
 H         2.582538        -1.314165        -0.761614
 H         3.535115         0.362357        -2.843150
 H         1.801467         0.122075        -3.020167
 H         3.242461         2.535715        -2.093017
 H         1.492447         2.395438        -2.172443
 H         1.757909         2.458618         1.178995
