19
Iteration:  4437
 C        -0.065749         0.112076         0.087287
 C         1.409239         0.331819        -0.083703
 O         2.327120         0.163291         1.151935
 C         3.177275         0.550408         0.164239
 C         2.482081        -0.302644        -0.946184
 C         2.571568         0.330242        -2.357073
 C         2.371027         1.917559        -1.817489
 C         2.160323         1.646246        -0.365982
 O         1.992515         2.872654         0.385367
 H        -0.577540         0.789439         0.874061
 H        -0.662653         0.266647        -0.800298
 H        -0.338268        -0.923062         0.363141
 H         4.201473         0.738681         0.470685
 H         2.644311        -1.400797        -0.930638
 H         3.573015         0.328274        -2.765282
 H         1.842492         0.189398        -3.180479
 H         3.250719         2.662532        -1.902899
 H         1.603388         2.407794        -2.337451
 H         1.965896         2.480139         1.305795
