19
Iteration:  2707charge 0 multiplicity 1
 C        -0.095765        -0.089502         0.002524
 C         1.422827         0.299892        -0.054765
 O         2.193100         0.165165         1.168289
 C         3.207564         0.629956         0.152271
 C         2.500140        -0.287064        -0.904419
 C         2.436367         0.389425        -2.425378
 C         2.402332         1.895436        -1.854652
 C         2.249283         1.676594        -0.313845
 O         2.156130         2.981466         0.435525
 H        -0.529176         0.574021         0.830506
 H        -0.499527         0.284457        -0.957638
 H        -0.270795        -1.085265         0.247292
 H         4.286396         0.704641         0.446566
 H         2.456534        -1.414349        -0.777194
 H         3.269569        -0.075496        -3.019750
 H         1.522821         0.019957        -2.838789
 H         3.193077         2.462090        -2.162374
 H         1.494621         2.445441        -2.146587
 H         1.907150         2.712257         1.364458
