19
Iteration:  4715
 C        -0.012512         0.176994         0.136676
 C         1.384964         0.336682        -0.122293
 O         2.208063         0.035920         1.144472
 C         3.191366         0.591775         0.176931
 C         2.536495        -0.290901        -0.939307
 C         2.643219         0.417446        -2.251791
 C         2.272800         1.903039        -1.895750
 C         2.207411         1.646902        -0.431163
 O         2.050502         2.840788         0.389749
 H        -0.266268         0.863055         0.894850
 H        -0.732289         0.498748        -0.676367
 H        -0.554410        -0.733693         0.366658
 H         4.229201         0.771678         0.507294
 H         2.584521        -1.397136        -0.955542
 H         3.654627         0.324777        -2.694305
 H         1.834662         0.003157        -2.856460
 H         3.044730         2.506159        -2.161769
 H         1.392302         2.338626        -2.493267
 H         1.879298         2.552981         1.307293
