19
Iteration:   633charge 0 multiplicity 1
 C        -0.092099         0.217179         0.148300
 C         1.406231         0.355992        -0.040810
 O         2.261802         0.116129         1.192210
 C         3.171711         0.558673         0.089270
 C         2.515569        -0.337695        -0.942312
 C         2.587732         0.472748        -2.313341
 C         2.322081         1.907038        -1.865761
 C         2.229223         1.666011        -0.400519
 O         2.028262         2.723359         0.394382
 H        -0.605848         0.917247         0.797565
 H        -0.545392         0.322244        -0.911202
 H        -0.227279        -0.797478         0.410478
 H         4.242331         0.799885         0.267512
 H         2.814398        -1.409972        -1.048536
 H         3.648524         0.357468        -2.689033
 H         1.906539         0.014464        -3.122685
 H         3.233468         2.477333        -2.235299
 H         1.436153         2.366765        -2.364073
 H         1.656040         2.579986         1.284173
