19
Iteration:  2756charge 0 multiplicity 1
 C        -0.152925        -0.010404        -0.007243
 C         1.421039         0.368670        -0.044575
 O         2.272549         0.234856         1.232282
 C         3.172650         0.589107         0.117419
 C         2.455092        -0.336038        -0.988796
 C         2.562475         0.393502        -2.347260
 C         2.205141         1.873069        -1.810056
 C         2.289347         1.720944        -0.342667
 O         2.162899         2.861823         0.424620
 H        -0.636627         0.742030         0.532292
 H        -0.459725         0.012321        -1.048335
 H        -0.275175        -1.008243         0.570204
 H         4.142970         0.299316         0.437255
 H         2.742092        -1.349675        -1.029031
 H         3.600951         0.389889        -2.551894
 H         2.032173        -0.008905        -3.262446
 H         3.077384         2.568036        -2.245361
 H         1.287938         2.216631        -2.291307
 H         1.974998         2.556972         1.329302
