19
Iteration:  3405
 C        -0.039616         0.024990        -0.175822
 C         1.451478         0.296513        -0.023604
 O         2.298793         0.183476         1.341039
 C         3.199361         0.670192         0.101966
 C         2.480621        -0.319345        -0.945472
 C         2.397003         0.390584        -2.326096
 C         2.327779         1.843905        -1.837841
 C         2.113052         1.667966        -0.282831
 O         2.170015         2.903593         0.373510
 H        -0.651203         0.749795         0.406278
 H        -0.241269         0.005782        -1.221528
 H        -0.257672        -0.952852         0.302132
 H         4.305765         0.659382         0.248017
 H         2.564461        -1.335470        -0.595791
 H         3.170174         0.105939        -3.014957
 H         1.415767         0.196174        -2.783347
 H         3.336757         2.353852        -1.992133
 H         1.522610         2.311548        -2.358881
 H         2.067819         2.763271         1.328527
