19
Iteration:   789charge 0 multiplicity 1
 C        -0.077030         0.020767         0.067091
 C         1.350341         0.407846        -0.023004
 O         2.286332         0.008290         1.187111
 C         3.130507         0.576224         0.093154
 C         2.446559        -0.205805        -0.967051
 C         2.566654         0.441866        -2.257621
 C         2.434786         1.866665        -1.870958
 C         2.198483         1.678442        -0.357379
 O         2.023534         2.898659         0.406145
 H        -0.685140         0.561988         0.808845
 H        -0.524848         0.156386        -0.916136
 H        -0.145589        -1.085825         0.305682
 H         4.174150         0.700186         0.261635
 H         2.619466        -1.333969        -0.898196
 H         3.373962         0.212368        -2.906351
 H         1.613260         0.087856        -2.859737
 H         3.329133         2.502098        -2.014467
 H         1.698107         2.387348        -2.483782
 H         2.866306         3.011415         0.873567
