19
Iteration:  1989
 C        -0.071674        -0.026773         0.037455
 C         1.398794         0.318246        -0.027852
 O         2.226246         0.092213         1.199632
 C         3.145064         0.545436         0.112577
 C         2.465110        -0.313758        -0.922667
 C         2.491575         0.483450        -2.394860
 C         2.315726         1.909505        -1.818269
 C         2.177528         1.739633        -0.341477
 O         2.239982         2.919838         0.414406
 H        -0.515126         0.664512         0.748229
 H        -0.440491         0.030650        -0.996495
 H        -0.011476        -1.060805         0.260510
 H         4.138863         0.732528         0.396231
 H         2.421154        -1.428586        -1.074815
 H         3.482975         0.314591        -2.836301
 H         1.721801         0.057586        -3.072920
 H         3.325943         2.424143        -2.027687
 H         1.544547         2.511372        -2.298939
 H         1.695964         2.837832         1.211979
