19
Iteration:  4325
 C        -0.075913        -0.006871        -0.100047
 C         1.393826         0.352022        -0.019066
 O         2.335626         0.172701         1.227135
 C         3.215410         0.581430         0.131109
 C         2.463439        -0.303675        -0.921745
 C         2.423055         0.359793        -2.331275
 C         2.345789         1.911379        -1.875228
 C         2.235618         1.749547        -0.303226
 O         2.087719         2.866966         0.434280
 H        -0.746365         0.632384         0.539289
 H        -0.282454         0.114431        -1.238860
 H        -0.279816        -1.071812         0.147312
 H         4.314108         0.671186         0.336606
 H         2.561579        -1.418378        -0.726263
 H         3.278634         0.204103        -2.916390
 H         1.457841         0.147407        -2.853822
 H         3.320295         2.513709        -2.023869
 H         1.520353         2.315409        -2.322281
 H         1.958136         2.681372         1.383239
