19
Iteration:  2251
 C        -0.036105         0.239896         0.049593
 C         1.450770         0.297935        -0.024531
 O         2.242745         0.157029         1.187358
 C         3.194317         0.523114         0.093259
 C         2.539876        -0.333851        -0.987839
 C         2.612809         0.461365        -2.287896
 C         2.222381         1.867118        -1.887545
 C         2.222449         1.668333        -0.363438
 O         2.009630         2.785791         0.446756
 H        -0.560682         1.042992         0.574316
 H        -0.398476         0.365522        -1.020031
 H        -0.411404        -0.736782         0.325853
 H         4.261427         0.580015         0.334183
 H         2.857042        -1.458200        -0.873024
 H         3.509635         0.278460        -2.806295
 H         1.750968         0.082258        -2.935512
 H         2.922741         2.683118        -2.221303
 H         1.216585         2.123754        -2.089396
 H         2.222294         2.409265         1.337489
