19
Iteration:  1928
 C         0.026717         0.380633         0.037474
 C         1.432428         0.294790        -0.095952
 O         2.285117         0.065023         1.126834
 C         3.209331         0.660361         0.129637
 C         2.548329        -0.266400        -0.937467
 C         2.555939         0.387113        -2.334700
 C         2.261768         1.811982        -1.865373
 C         2.192062         1.665669        -0.360045
 O         1.998544         2.692087         0.493109
 H        -0.395814         1.008476         0.818689
 H        -0.574394         0.705810        -0.874384
 H        -0.598677        -0.545534         0.304901
 H         4.311340         0.867248         0.508035
 H         2.673048        -1.352129        -0.874400
 H         3.537055         0.264042        -2.919512
 H         1.776866        -0.065153        -2.907104
 H         2.921895         2.578616        -2.148251
 H         1.211103         2.099330        -2.198681
 H         1.771846         2.252341         1.356769
