19
Iteration:  3316charge 0 multiplicity 1
 C        -0.053101         0.281123         0.201420
 C         1.408512         0.372244        -0.053056
 O         2.333084         0.158963         1.196369
 C         3.186666         0.547633         0.116827
 C         2.549051        -0.382677        -1.004107
 C         2.601765         0.395555        -2.317527
 C         2.418740         1.906586        -1.838170
 C         2.161611         1.607563        -0.430292
 O         1.864350         2.739452         0.319228
 H        -0.403037         0.965199         1.088570
 H        -0.709776         0.469425        -0.694835
 H        -0.347147        -0.707894         0.405770
 H         4.212423         0.754229         0.449452
 H         2.401607        -1.430133        -0.925679
 H         3.625601         0.480480        -2.588408
 H         1.870271         0.110045        -3.067975
 H         3.296689         2.645176        -2.173286
 H         1.497373         2.217287        -2.235040
 H         2.002865         2.522412         1.254080
