19
Iteration:  4172
 C        -0.073549         0.154907        -0.039114
 C         1.367460         0.372251         0.117201
 O         2.312929         0.193683         1.211533
 C         3.215266         0.523726         0.027072
 C         2.528268        -0.347168        -1.006268
 C         2.546516         0.372849        -2.318429
 C         2.291513         1.962686        -1.856880
 C         2.231125         1.668365        -0.332553
 O         2.007094         2.778554         0.464370
 H        -0.809959         0.961459         0.377289
 H        -0.285397         0.049951        -1.163711
 H        -0.332940        -0.878400         0.278891
 H         4.327556         0.473708         0.205310
 H         2.844230        -1.403383        -0.899723
 H         3.335516         0.238148        -3.026593
 H         1.566368         0.156194        -2.858602
 H         3.221791         2.681041        -2.091072
 H         1.401069         2.427270        -2.218809
 H         2.218484         2.391641         1.366810
