19
Iteration:  3348charge 0 multiplicity 1
 C        -0.042352         0.280445         0.227914
 C         1.430262         0.313375        -0.030250
 O         2.248975         0.165115         1.122018
 C         3.146615         0.548937         0.076752
 C         2.556166        -0.387244        -1.038879
 C         2.732199         0.371224        -2.339885
 C         2.301075         1.796720        -1.928977
 C         2.143820         1.666715        -0.409153
 O         1.943285         2.857520         0.513002
 H        -0.397830         1.272636         0.674774
 H        -0.684899         0.317394        -0.688800
 H        -0.354541        -0.564652         0.750471
 H         4.204616         0.622128         0.298652
 H         2.573890        -1.433669        -0.829527
 H         3.782498         0.377947        -2.566515
 H         2.340917        -0.009644        -3.285703
 H         2.995652         2.677247        -2.326693
 H         1.348660         2.115575        -2.343749
 H         1.785073         2.322133         1.335102
