19
Iteration:   693
 C        -0.111614         0.285975        -0.037844
 C         1.432993         0.288965        -0.058113
 O         2.330994         0.159762         1.166637
 C         3.323651         0.456813         0.140276
 C         2.539180        -0.345061        -0.889783
 C         2.579255         0.470007        -2.288787
 C         2.190412         1.915499        -1.810080
 C         2.205102         1.612761        -0.299308
 O         1.950401         2.757524         0.364220
 H        -0.517471         1.123747         0.573630
 H        -0.430880         0.378443        -1.001268
 H        -0.687830        -0.634587         0.321607
 H         4.384034         0.578118         0.300075
 H         2.670150        -1.446666        -0.863732
 H         3.529320         0.422354        -2.857689
 H         1.843655         0.067157        -3.002030
 H         2.881257         2.644615        -2.172309
 H         1.256740         2.308743        -2.143721
 H         2.546746         2.797924         1.147500
