19
Iteration:  2685
 C        -0.067197         0.113221         0.044511
 C         1.427129         0.326110        -0.019024
 O         2.263213         0.107698         1.181388
 C         3.206133         0.538599         0.124839
 C         2.542348        -0.300683        -0.949084
 C         2.436910         0.441028        -2.259510
 C         2.401212         1.928210        -1.815247
 C         2.226583         1.708931        -0.424674
 O         2.013030         2.856858         0.338891
 H        -0.510670         0.595645         0.997329
 H        -0.567472         0.398901        -0.903653
 H        -0.091652        -0.921998         0.235460
 H         4.275822         0.475808         0.492515
 H         2.826306        -1.401690        -0.930749
 H         3.196984         0.037777        -3.005144
 H         1.484172         0.076692        -2.635289
 H         3.409112         2.267338        -1.888399
 H         1.775417         2.654476        -2.352252
 H         1.590989         2.467008         1.110175
