19
Iteration:  2748
 C        -0.102193        -0.058189        -0.021712
 C         1.409824         0.320379         0.009853
 O         2.222200         0.252120         1.209857
 C         3.224454         0.539063         0.079189
 C         2.359863        -0.301692        -0.934058
 C         2.613283         0.354364        -2.329358
 C         2.230328         1.930448        -1.838085
 C         2.261297         1.748641        -0.350250
 O         2.179587         2.881479         0.416551
 H        -0.723910         0.650158         0.543417
 H        -0.423809        -0.008432        -1.069185
 H        -0.284470        -1.093577         0.411818
 H         4.336281         0.471402         0.376899
 H         2.545382        -1.412211        -0.888955
 H         3.679365         0.333405        -2.775167
 H         1.891997         0.159016        -3.093932
 H         2.920417         2.816374        -2.072787
 H         1.247060         2.206477        -2.262008
 H         2.308235         2.494207         1.292794
