19
Iteration:  3023
 C        -0.050753         0.141732         0.116972
 C         1.411900         0.385018        -0.059451
 O         2.238041         0.106219         1.155892
 C         3.223092         0.553848         0.112709
 C         2.556011        -0.327368        -0.972873
 C         2.569678         0.428342        -2.244552
 C         2.363948         1.880399        -1.843761
 C         2.230085         1.660069        -0.358917
 O         1.927027         2.854788         0.335831
 H        -0.545638         0.964995         0.772880
 H        -0.624037         0.067847        -0.840288
 H        -0.137328        -0.794766         0.595276
 H         4.279072         0.743693         0.420493
 H         2.782820        -1.408347        -1.081418
 H         3.478191         0.135563        -2.814417
 H         1.787525         0.039478        -2.853370
 H         3.108098         2.622493        -2.249384
 H         1.308890         2.196299        -2.204990
 H         2.156994         2.536756         1.252767
