19
Iteration:   791charge 0 multiplicity 1
 C        -0.066760         0.027383         0.055980
 C         1.350721         0.407638        -0.042957
 O         2.294689         0.010091         1.175986
 C         3.130919         0.573584         0.096433
 C         2.451595        -0.207749        -0.963373
 C         2.563826         0.433452        -2.253918
 C         2.423615         1.848002        -1.890266
 C         2.196044         1.694296        -0.320547
 O         2.017138         2.904564         0.415534
 H        -0.657039         0.612814         0.798586
 H        -0.543205         0.157662        -0.835436
 H        -0.186760        -1.056414         0.299053
 H         4.179341         0.642806         0.277548
 H         2.582594        -1.267535        -0.963541
 H         3.439282         0.195959        -2.905389
 H         1.645637         0.080269        -2.870770
 H         3.299060         2.471466        -1.997200
 H         1.668199         2.331133        -2.449448
 H         2.864628         3.021404         0.879545
