19
Iteration:  1552
 C        -0.162948         0.275618         0.228254
 C         1.322215         0.279811        -0.059016
 O         2.326202         0.187774         1.146034
 C         3.262890         0.547693         0.003417
 C         2.521643        -0.350284        -0.974746
 C         2.705673         0.450027        -2.283395
 C         2.343360         1.811043        -1.884880
 C         2.170691         1.616002        -0.369845
 O         1.933024         2.778895         0.376238
 H        -0.317911         1.168406         0.910096
 H        -0.678324         0.555480        -0.610424
 H        -0.640752        -0.569744         0.676323
 H         4.399576         0.457781         0.371786
 H         2.841467        -1.385170        -1.087344
 H         3.759835         0.308483        -2.595829
 H         2.152071         0.189294        -3.200475
 H         3.108293         2.539084        -2.046560
 H         1.335827         2.159430        -2.182536
 H         1.813341         2.688916         1.354053
