19
Iteration:  4642
 C        -0.079660         0.068536        -0.083612
 C         1.447676         0.299997        -0.070356
 O         2.213368         0.226389         1.174140
 C         3.214549         0.677025         0.199635
 C         2.540165        -0.278124        -0.981839
 C         2.411206         0.356701        -2.375918
 C         2.320306         1.776080        -1.807060
 C         2.279518         1.728212        -0.343412
 O         2.131299         2.846118         0.495732
 H        -0.706361         0.560081         0.689119
 H        -0.638560         0.096820        -1.067660
 H        -0.216667        -0.948377         0.128967
 H         4.243011         0.850401         0.562191
 H         2.666485        -1.402108        -0.908147
 H         3.185233         0.034650        -3.010405
 H         1.445419        -0.008224        -2.760834
 H         3.241585         2.356609        -2.147492
 H         1.538230         2.358362        -2.187937
 H         2.013494         2.551412         1.406320
