19
Iteration:   542
 C        -0.118205         0.086652        -0.050422
 C         1.412139         0.410513        -0.039253
 O         2.273340         0.161642         1.252605
 C         3.277729         0.539628         0.100055
 C         2.543677        -0.312111        -0.901625
 C         2.460784         0.430822        -2.317075
 C         2.284864         1.938265        -1.785723
 C         2.280414         1.639673        -0.356205
 O         2.068438         2.788278         0.319802
 H        -0.697544         0.809342         0.624704
 H        -0.513208         0.199299        -1.028571
 H        -0.310599        -0.961385         0.362096
 H         4.338802         0.553376         0.410513
 H         2.517334        -1.295087        -0.886350
 H         3.445303         0.183793        -2.941015
 H         1.580911         0.193587        -2.810218
 H         3.044498         2.765256        -1.993447
 H         1.232386         2.237923        -2.084110
 H         2.088781         2.458020         1.259263
