19
Iteration:  4606
 C        -0.093915         0.202734         0.109673
 C         1.421672         0.356286         0.043400
 O         2.263537         0.157794         1.129791
 C         3.273663         0.481812         0.055985
 C         2.497249        -0.314663        -0.984454
 C         2.573254         0.413628        -2.237295
 C         2.397870         1.914800        -1.839858
 C         2.205280         1.669379        -0.353032
 O         1.909546         2.805861         0.356507
 H        -0.595180         1.076563         0.542813
 H        -0.415484        -0.010020        -1.008468
 H        -0.193925        -0.708320         0.775339
 H         4.361743         0.350838         0.246371
 H         2.514181        -1.429321        -1.028142
 H         3.624425         0.352880        -2.734507
 H         1.762116         0.267389        -2.980395
 H         3.266455         2.463639        -2.011187
 H         1.496258         2.321519        -2.473727
 H         1.991012         2.353737         1.227745
