19
Iteration:  1721
 C        -0.011610         0.288874         0.155762
 C         1.384166         0.341315        -0.050269
 O         2.315302         0.033737         1.134562
 C         3.250302         0.600324         0.035667
 C         2.439674        -0.341446        -0.900730
 C         2.627871         0.438582        -2.283164
 C         2.406921         1.891118        -1.888593
 C         2.188536         1.658624        -0.388443
 O         1.860298         2.799739         0.400646
 H        -0.318409         0.931197         0.907072
 H        -0.600951         0.476182        -0.763322
 H        -0.343344        -0.683484         0.613380
 H         4.404370         0.439023         0.031924
 H         2.664888        -1.463053        -0.841987
 H         3.639006         0.099484        -2.618694
 H         1.858862         0.101698        -3.012433
 H         3.255790         2.600234        -2.184702
 H         1.424828         2.383219        -2.272011
 H         1.658064         2.392648         1.280965
