19
Iteration:  2115charge 0 multiplicity 1
 C        -0.102927         0.259754         0.010953
 C         1.490555         0.323338        -0.130027
 O         2.281497         0.139481         1.228768
 C         3.222287         0.484052         0.118753
 C         2.542980        -0.349039        -1.001625
 C         2.585427         0.487692        -2.255375
 C         2.139788         1.909343        -1.808779
 C         2.263026         1.604164        -0.359124
 O         2.010391         2.777971         0.403147
 H        -0.434237         1.053581         0.751964
 H        -0.527620         0.554181        -0.931823
 H        -0.432492        -0.737728         0.441431
 H         4.344418         0.411271         0.255815
 H         2.755108        -1.328358        -1.053036
 H         3.637603         0.537117        -2.635904
 H         2.025171        -0.049963        -3.015318
 H         2.714480         2.705358        -2.187474
 H         1.065908         2.011884        -2.067515
 H         2.373427         2.670625         1.303583
