19
Iteration:  2622
 C        -0.056670         0.344375         0.102404
 C         1.432414         0.351084        -0.053304
 O         2.268508         0.064072         1.180918
 C         3.189543         0.614867         0.120106
 C         2.516589        -0.317177        -0.978782
 C         2.689327         0.463038        -2.301305
 C         2.250301         1.787891        -1.856510
 C         2.226359         1.631550        -0.387524
 O         1.967553         2.720675         0.386116
 H        -0.464025         1.137789         0.794845
 H        -0.718101         0.397174        -0.764688
 H        -0.414612        -0.578910         0.476213
 H         4.202768         0.845561         0.406625
 H         2.662994        -1.417945        -1.064259
 H         3.678253         0.394252        -2.661586
 H         1.994997         0.142306        -3.122344
 H         2.907920         2.700045        -2.153329
 H         1.192371         2.078546        -2.143983
 H         2.093606         2.372853         1.286288
