19
Iteration:  3692charge 0 multiplicity 1
 C        -0.021630         0.381900         0.056028
 C         1.452918         0.325446        -0.086970
 O         2.289012         0.125004         1.169964
 C         3.286228         0.516297         0.100277
 C         2.556314        -0.334715        -0.990587
 C         2.648985         0.428677        -2.348148
 C         2.181527         1.819328        -1.815820
 C         2.285451         1.620178        -0.348503
 O         1.880037         2.732854         0.477554
 H        -0.322542         0.927428         0.919121
 H        -0.491518         0.921034        -0.821913
 H        -0.549921        -0.598047         0.155703
 H         4.330815         0.861286         0.395646
 H         2.508279        -1.426424        -1.022816
 H         3.673928         0.366400        -2.671112
 H         1.988491         0.013968        -3.095156
 H         2.826271         2.643257        -2.209479
 H         1.158279         2.175113        -2.209461
 H         1.386519         2.439398         1.274755
