19
Iteration:   882charge 0 multiplicity 1
 C        -0.031295         0.179202         0.037131
 C         1.433008         0.443389        -0.064077
 O         2.280994         0.100796         1.147037
 C         3.268081         0.545816         0.124992
 C         2.471158        -0.283517        -0.911926
 C         2.547878         0.386166        -2.329104
 C         2.287678         1.856791        -1.887231
 C         2.202766         1.711591        -0.368751
 O         1.960297         2.783220         0.466683
 H        -0.460698         0.893511         0.687745
 H        -0.497327         0.214386        -1.023958
 H        -0.223033        -0.801197         0.386612
 H         4.392917         0.441683         0.431768
 H         2.372252        -1.399446        -0.897640
 H         3.570584         0.043633        -2.856142
 H         1.844001        -0.039089        -2.992838
 H         3.157856         2.596347        -1.918056
 H         1.494236         2.501072        -2.349162
 H         2.219666         2.476275         1.369293
