19
Iteration:  1441
 C        -0.102365         0.032181        -0.025221
 C         1.444934         0.413647        -0.058224
 O         2.329820         0.199475         1.234345
 C         3.241935         0.533632         0.060602
 C         2.461315        -0.284666        -0.880697
 C         2.444843         0.329119        -2.339483
 C         2.382039         1.815420        -1.912953
 C         2.282499         1.738459        -0.330260
 O         2.014753         2.928993         0.456087
 H        -0.624398         0.642064         0.715872
 H        -0.514244         0.088344        -0.943798
 H        -0.225656        -1.038510         0.266534
 H         4.369700         0.417424         0.436950
 H         2.380763        -1.395429        -0.883830
 H         3.231793         0.099746        -3.040726
 H         1.410852         0.176516        -2.746978
 H         3.208723         2.458807        -2.262668
 H         1.409792         2.196000        -2.235459
 H         1.870570         2.519738         1.353969
