19
Iteration:  1973charge 0 multiplicity 1
 C        -0.060840         0.035972        -0.020535
 C         1.384257         0.398796        -0.017977
 O         2.295409         0.142478         1.192834
 C         3.228644         0.552491         0.172202
 C         2.356506        -0.303707        -1.042487
 C         2.520802         0.440176        -2.251513
 C         2.280056         1.963761        -1.818127
 C         2.261411         1.621370        -0.330153
 O         2.138670         2.821420         0.347950
 H        -0.620446         0.670129         0.700558
 H        -0.409945         0.276416        -1.062007
 H        -0.281035        -1.085513         0.200478
 H         4.378132         0.523287         0.370871
 H         2.525423        -1.308914        -0.816328
 H         3.533539         0.263244        -2.665113
 H         1.841379         0.254349        -3.079679
 H         3.008572         2.697689        -1.985033
 H         1.248290         2.287951        -2.070433
 H         2.070104         2.636528         1.325118
