19
Iteration:   476charge 0 multiplicity 1
 C        -0.024076         0.315400         0.124256
 C         1.420012         0.279257        -0.077673
 O         2.252365         0.162664         1.246916
 C         3.266691         0.515767         0.163563
 C         2.529711        -0.406036        -1.000275
 C         2.590791         0.406037        -2.335497
 C         2.244545         1.934680        -1.915003
 C         2.215205         1.668276        -0.430656
 O         1.941627         2.740342         0.385225
 H        -0.219270         1.133092         0.837863
 H        -0.519341         0.483443        -0.799529
 H        -0.526964        -0.599359         0.560372
 H         4.319360         0.622780         0.498916
 H         2.699472        -1.379264        -0.923268
 H         3.705311         0.522385        -2.635192
 H         2.027810         0.027741        -3.133493
 H         3.047836         2.690091        -2.079958
 H         1.215003         2.334641        -2.172619
 H         2.114121         2.292312         1.253875
