19
Iteration:  2218charge 0 multiplicity 1
 C        -0.037761         0.079439         0.009574
 C         1.388563         0.360293        -0.100383
 O         2.389377         0.079390         1.132895
 C         3.177385         0.572600         0.108936
 C         2.407500        -0.301300        -0.957976
 C         2.445120         0.396491        -2.218386
 C         2.468735         1.887306        -1.796344
 C         2.224357         1.703646        -0.384028
 O         1.977173         2.907166         0.445312
 H        -0.621300         0.726063         0.660634
 H        -0.400506         0.123367        -1.060319
 H        -0.179679        -0.951938         0.239991
 H         4.245233         0.675935         0.252116
 H         2.575337        -1.472195        -0.854827
 H         3.166977        -0.005683        -2.856835
 H         1.401990         0.258952        -2.687814
 H         3.463615         2.355560        -2.074437
 H         1.762435         2.467409        -2.320612
 H         1.723704         2.801781         1.384220
