19
Iteration:  4728
 C        -0.061508         0.267852         0.184229
 C         1.414669         0.303321        -0.105127
 O         2.219487         0.090307         1.156495
 C         3.142955         0.586510         0.151325
 C         2.566197        -0.299873        -0.967408
 C         2.610620         0.428811        -2.343981
 C         2.364879         1.879513        -1.892790
 C         2.156907         1.649440        -0.356940
 O         1.970655         2.748068         0.363797
 H        -0.173734         1.032650         0.964802
 H        -0.604651         0.499443        -0.801920
 H        -0.211077        -0.671341         0.551161
 H         4.194351         0.727385         0.527813
 H         2.806573        -1.410831        -0.844228
 H         3.637605         0.427771        -2.688784
 H         2.099665         0.017985        -3.185898
 H         3.133717         2.576502        -2.085716
 H         1.443252         2.319005        -2.223568
 H         2.172614         2.417454         1.293413
