19
Iteration:  2553charge 0 multiplicity 1
 C        -0.127165        -0.052352        -0.055653
 C         1.388312         0.271577         0.001676
 O         2.249813         0.146097         1.208871
 C         3.205827         0.629397         0.122346
 C         2.475014        -0.341517        -0.950318
 C         2.430651         0.444810        -2.274663
 C         2.409453         1.874354        -1.836078
 C         2.215328         1.702112        -0.323455
 O         2.196065         2.985102         0.396847
 H        -0.799192         0.547559         0.673924
 H        -0.524304        -0.011477        -1.074501
 H        -0.242010        -1.116975         0.172547
 H         4.296511         0.705109         0.415668
 H         2.538324        -1.449286        -1.034736
 H         3.290505         0.274465        -2.996438
 H         1.547557         0.171200        -2.778423
 H         3.365013         2.288909        -2.119323
 H         1.677654         2.467928        -2.446007
 H         1.639905         2.832679         1.165013
