19
Iteration:  2943charge 0 multiplicity 1
 C         0.033626         0.092280         0.009211
 C         1.425917         0.330272        -0.084451
 O         2.231567         0.121736         1.191928
 C         3.173545         0.597973         0.166232
 C         2.501919        -0.335143        -0.960334
 C         2.532287         0.357893        -2.290746
 C         2.283750         1.863329        -1.869398
 C         2.265017         1.777675        -0.336433
 O         2.023181         2.895239         0.410288
 H        -0.452021         0.851098         0.661540
 H        -0.454571         0.263375        -0.974251
 H        -0.332566        -0.894162         0.485295
 H         4.223087         0.487094         0.398620
 H         2.671567        -1.448290        -0.852603
 H         3.441552         0.267538        -2.891519
 H         1.656538        -0.127678        -2.830037
 H         3.081019         2.483997        -2.452883
 H         1.345651         2.195426        -2.273364
 H         2.038244         2.587142         1.355636
