19
Iteration:  3551
 C        -0.082920         0.181928        -0.065554
 C         1.456086         0.355265        -0.049719
 O         2.310429         0.113823         1.197583
 C         3.244576         0.635778         0.109299
 C         2.568597        -0.303824        -0.941952
 C         2.493739         0.317404        -2.358430
 C         2.267042         1.857946        -1.840816
 C         2.195948         1.686492        -0.277595
 O         2.028847         2.793345         0.460161
 H        -0.384752         1.081729         0.407556
 H        -0.408705         0.281326        -1.130647
 H        -0.563175        -0.632219         0.525783
 H         4.294033         0.941200         0.439180
 H         2.574320        -1.399325        -0.848652
 H         3.503190         0.196606        -2.811085
 H         1.632881         0.061662        -2.954192
 H         3.043068         2.479172        -2.124241
 H         1.351315         2.295543        -2.394278
 H         1.704357         2.546275         1.336858
