19
Iteration:  4692charge 0 multiplicity 1
 C        -0.087080         0.066501         0.006813
 C         1.401278         0.425187         0.015037
 O         2.252075         0.152660         1.179298
 C         3.187268         0.495862         0.119482
 C         2.529225        -0.292157        -0.991687
 C         2.537217         0.368931        -2.374101
 C         2.310281         1.828508        -1.771240
 C         2.299941         1.718325        -0.301506
 O         2.063776         2.905906         0.392253
 H        -0.753807         0.411213         0.768959
 H        -0.563805         0.434130        -0.936535
 H        -0.392145        -1.053178        -0.133322
 H         4.279215         0.511669         0.199566
 H         2.547497        -1.341012        -0.716896
 H         3.640907         0.298901        -2.576603
 H         1.814332         0.047654        -3.146795
 H         2.958858         2.476718        -2.299222
 H         1.295767         2.207801        -2.222237
 H         1.873727         2.882793         1.357438
