19
Iteration:   223
 C         0.007170        -0.069924        -0.027449
 C         1.368641         0.424596        -0.039750
 O         2.208687         0.163302         1.250156
 C         3.162865         0.464746         0.144864
 C         2.524873        -0.238328        -0.926861
 C         2.352190         0.385417        -2.296425
 C         2.411298         1.917700        -1.943239
 C         2.324953         1.787729        -0.310806
 O         2.098331         2.936373         0.392148
 H        -0.614329         0.446601         0.596901
 H        -0.358518        -0.003463        -1.129753
 H        -0.011772        -1.072425         0.263940
 H         4.215259         0.322721         0.441068
 H         2.561614        -1.355125        -0.875412
 H         3.231214         0.178089        -2.922455
 H         1.472641        -0.157143        -2.753015
 H         3.301512         2.374037        -2.327621
 H         1.351825         2.282175        -2.191990
 H         2.002823         2.484453         1.290561
