19
Iteration:  4124
 C        -0.113380        -0.065677         0.167016
 C         1.338611         0.320644        -0.034691
 O         2.164603         0.053431         1.089959
 C         3.191319         0.549443         0.134794
 C         2.590443        -0.267848        -0.996261
 C         2.440031         0.456552        -2.337694
 C         2.486608         1.912063        -1.864558
 C         2.238120         1.783635        -0.343334
 O         2.166835         2.970235         0.451758
 H        -0.757526         0.530585         0.776305
 H        -0.485245        -0.027237        -0.879632
 H        -0.181612        -1.260564         0.336239
 H         4.170141         0.817624         0.473951
 H         2.611719        -1.336762        -0.901244
 H         3.294274         0.245894        -3.040869
 H         1.489672         0.121076        -2.774297
 H         3.315857         2.518053        -2.125932
 H         1.563297         2.290187        -2.405150
 H         1.508570         2.606463         1.040740
