19
Iteration:   274charge 0 multiplicity 1
 C        -0.141449         0.196061         0.105417
 C         1.396764         0.312914         0.007043
 O         2.292556         0.175193         1.218944
 C         3.290621         0.576930         0.082925
 C         2.465772        -0.328533        -0.972065
 C         2.600884         0.427444        -2.330297
 C         2.351979         1.891686        -1.907323
 C         2.218533         1.692413        -0.362756
 O         1.942740         2.762707         0.388353
 H        -0.561643         0.955141         0.848847
 H        -0.585442         0.381984        -0.909505
 H        -0.434905        -0.816233         0.487570
 H         4.363836         0.474694         0.259588
 H         2.753358        -1.455758        -0.911477
 H         3.565029         0.307096        -2.718518
 H         1.895977         0.021165        -3.136766
 H         3.317469         2.329213        -2.100398
 H         1.517357         2.412954        -2.377724
 H         2.088947         2.301966         1.236875
