19
Iteration:  1911
 C        -0.156300         0.347826         0.081936
 C         1.465683         0.327514        -0.075531
 O         2.272516         0.116375         1.182703
 C         3.298497         0.510003         0.055309
 C         2.642603        -0.384969        -0.960505
 C         2.536166         0.413955        -2.306281
 C         2.262012         1.939810        -1.838558
 C         2.261910         1.642213        -0.355575
 O         1.889361         2.719515         0.439305
 H        -0.293126         1.171894         0.875378
 H        -0.458831         0.735868        -0.852419
 H        -0.483842        -0.589149         0.438574
 H         4.301110         0.629040         0.256075
 H         2.938048        -1.446001        -0.985101
 H         3.488150         0.287507        -2.791378
 H         1.735636         0.121599        -3.058128
 H         3.168876         2.533784        -2.217377
 H         1.428381         2.444913        -2.297535
 H         1.742084         2.315054         1.340826
