19
Iteration:  2705
 C        -0.099007        -0.080133         0.011657
 C         1.427324         0.303281        -0.050936
 O         2.191226         0.164396         1.167693
 C         3.197704         0.625195         0.139372
 C         2.518997        -0.306411        -0.907682
 C         2.425322         0.399647        -2.410894
 C         2.420792         1.895663        -1.862945
 C         2.249675         1.671496        -0.300681
 O         2.145036         2.981658         0.435267
 H        -0.521497         0.562125         0.776921
 H        -0.469412         0.331252        -0.913849
 H        -0.314841        -1.122361         0.262268
 H         4.291250         0.719950         0.419873
 H         2.478701        -1.413550        -0.833728
 H         3.289143        -0.054036        -3.040107
 H         1.496423         0.061934        -2.815248
 H         3.208556         2.480852        -2.225326
 H         1.505724         2.384561        -2.160842
 H         1.857266         2.757675         1.337609
