19
Iteration:  2826
 C        -0.080668         0.330343         0.100051
 C         1.453514         0.312197        -0.063216
 O         2.416257         0.135560         1.208232
 C         3.253814         0.556578         0.080693
 C         2.503203        -0.295365        -0.949786
 C         2.524012         0.359337        -2.286162
 C         2.445496         1.900304        -1.825197
 C         2.165363         1.640529        -0.377530
 O         1.771973         2.720945         0.342712
 H        -0.507238         1.182758         0.727540
 H        -0.420972         0.416655        -0.952243
 H        -0.380858        -0.582205         0.505383
 H         4.346652         0.278195         0.243576
 H         2.710881        -1.425452        -0.895654
 H         3.438768         0.248351        -2.946961
 H         1.691433         0.281475        -2.931891
 H         3.297935         2.589144        -1.950768
 H         1.537836         2.502984        -2.134182
 H         1.979937         2.295168         1.241986
