19
Iteration:  2266charge 0 multiplicity 1
 C        -0.052798         0.255835         0.012167
 C         1.408389         0.317901        -0.197177
 O         2.229933         0.200985         1.144394
 C         3.282577         0.543332         0.170983
 C         2.581716        -0.368613        -0.923470
 C         2.592233         0.396323        -2.259292
 C         2.109658         1.932121        -1.790645
 C         2.240631         1.616842        -0.397795
 O         2.067239         2.720114         0.431082
 H        -0.011648         1.037440         0.704736
 H        -0.713131         0.440013        -0.816489
 H        -0.373766        -0.643112         0.594379
 H         4.307109         0.754734         0.551661
 H         2.474915        -1.385766        -1.110960
 H         3.691677         0.599512        -2.595724
 H         2.107803        -0.106266        -3.027186
 H         2.716113         2.721144        -2.183552
 H         1.031920         2.115022        -2.208219
 H         1.953430         2.541961         1.372360
