19
Iteration:  2745charge 0 multiplicity 1
 C        -0.068746        -0.053803        -0.019672
 C         1.370975         0.316855         0.026777
 O         2.209168         0.248616         1.199232
 C         3.242889         0.520169         0.071410
 C         2.366538        -0.304824        -0.924044
 C         2.627570         0.376641        -2.307356
 C         2.248217         1.937817        -1.862788
 C         2.241119         1.741959        -0.363576
 O         2.184173         2.884706         0.418025
 H        -0.719096         0.575676         0.515385
 H        -0.425998        -0.064072        -1.054232
 H        -0.274144        -1.148922         0.327193
 H         4.299214         0.591210         0.290834
 H         2.409592        -1.366792        -0.788740
 H         3.578624         0.261226        -2.760046
 H         1.812532         0.148868        -3.045025
 H         2.942354         2.878335        -2.090995
 H         1.216639         2.199106        -2.167260
 H         2.413090         2.525131         1.319423
