19
Iteration:  4189charge 0 multiplicity 1
 C        -0.090866         0.220846        -0.027516
 C         1.480606         0.312358        -0.140297
 O         2.336120         0.150360         1.181628
 C         3.258005         0.615068         0.118372
 C         2.516245        -0.311387        -0.923435
 C         2.492075         0.389611        -2.334673
 C         2.254058         1.805429        -1.884827
 C         2.203714         1.692087        -0.315708
 O         2.034732         2.769977         0.526728
 H        -0.437723         1.133078         0.392363
 H        -0.610520         0.404480        -0.963971
 H        -0.529862        -0.746022         0.413337
 H         4.292063         0.809170         0.354203
 H         2.601619        -1.388163        -0.944114
 H         3.560994         0.370120        -2.674192
 H         1.747542         0.051098        -3.056137
 H         3.000303         2.464380        -2.148771
 H         1.228734         2.253276        -2.109422
 H         1.740516         2.374627         1.372411
