19
Iteration:  3254
 C        -0.050398        -0.067864        -0.148782
 C         1.426841         0.280017         0.018312
 O         2.250287         0.258554         1.306219
 C         3.233005         0.603886         0.106586
 C         2.521702        -0.263479        -0.911409
 C         2.333907         0.372095        -2.298780
 C         2.343695         1.879783        -1.815613
 C         2.164097         1.709351        -0.295285
 O         2.162968         2.882985         0.322158
 H        -0.584005         0.525448         0.583381
 H        -0.351848         0.340176        -1.079609
 H        -0.169065        -1.192945        -0.124886
 H         4.316880         0.682754         0.389302
 H         2.540602        -1.329116        -0.964838
 H         3.243852         0.129264        -2.941931
 H         1.542873        -0.066261        -2.877438
 H         3.164860         2.432024        -2.102310
 H         1.513896         2.483897        -2.177681
 H         2.382533         2.714633         1.257576
