19
Iteration:  2356
 C         0.016337        -0.001345         0.078312
 C         1.436327         0.398067        -0.122473
 O         2.182620         0.144924         1.201335
 C         3.161766         0.515626         0.204253
 C         2.566954        -0.337850        -0.960622
 C         2.322823         0.441263        -2.348733
 C         2.491225         1.890653        -1.944641
 C         2.308471         1.741827        -0.331537
 O         2.017490         2.897947         0.444593
 H        -0.499916         0.599166         0.864157
 H        -0.519102         0.110233        -0.843785
 H        -0.175648        -0.991779         0.423049
 H         4.243506         0.434800         0.440876
 H         2.733308        -1.356464        -0.982141
 H         3.040989         0.234439        -3.193092
 H         1.369276         0.097747        -2.698650
 H         3.556348         2.149977        -2.109887
 H         1.947578         2.825109        -2.318310
 H         1.342710         2.580711         1.059634
