19
Iteration:   378charge 0 multiplicity 1
 C        -0.019922        -0.018329        -0.011493
 C         1.352359         0.420994        -0.053259
 O         2.259706         0.222562         1.242552
 C         3.187214         0.555757         0.125551
 C         2.457466        -0.276915        -0.914398
 C         2.433906         0.423698        -2.311701
 C         2.374392         1.831696        -1.927252
 C         2.313677         1.779057        -0.382790
 O         2.109117         2.821410         0.463660
 H        -0.713528         0.508300         0.653050
 H        -0.481961        -0.003866        -0.982847
 H         0.029456        -1.096673         0.274151
 H         4.275435         0.353472         0.295094
 H         2.486347        -1.287348        -0.840970
 H         3.327756         0.009670        -2.949947
 H         1.513827         0.249503        -2.774556
 H         3.170747         2.637400        -2.347715
 H         1.337784         2.301815        -2.261450
 H         1.855705         2.187251         1.214769
