19
Iteration:   459
 C         0.025317         0.206206         0.096134
 C         1.473793         0.358022        -0.014938
 O         2.206110         0.129956         1.192635
 C         3.240903         0.478221         0.003637
 C         2.477562        -0.317360        -0.952643
 C         2.611102         0.421536        -2.295796
 C         2.314344         1.886742        -1.829174
 C         2.251178         1.640882        -0.317391
 O         1.917296         2.860835         0.361467
 H        -0.303434         0.979215         0.826703
 H        -0.555802         0.367630        -0.860985
 H        -0.210300        -0.761716         0.482464
 H         4.310469         0.366603         0.178550
 H         2.427574        -1.529054        -1.049206
 H         3.505750         0.118671        -2.767863
 H         1.769691         0.050949        -2.982509
 H         3.110150         2.577544        -2.157887
 H         1.386577         2.167525        -2.270206
 H         1.739940         2.863328         1.326835
