19
Iteration:  4146charge 0 multiplicity 1
 C        -0.002167        -0.014542        -0.049999
 C         1.394062         0.318361        -0.080326
 O         2.261243         0.142293         1.176975
 C         3.222799         0.551236         0.161363
 C         2.400747        -0.266946        -0.965559
 C         2.418150         0.430230        -2.303237
 C         2.389609         1.937269        -1.829464
 C         2.257989         1.712329        -0.291691
 O         2.065295         2.878801         0.397143
 H        -0.445248         0.719438         0.575184
 H        -0.686732        -0.161341        -0.901652
 H         0.009694        -1.071320         0.511506
 H         4.283647         0.578279         0.375885
 H         2.421941        -1.332620        -0.797367
 H         3.347782         0.347405        -2.905406
 H         1.525131         0.234476        -2.914955
 H         3.352073         2.312964        -2.034660
 H         1.599193         2.639289        -2.238002
 H         2.278582         2.528333         1.318413
