19
Iteration:    31charge 0 multiplicity 1
 C        -0.093172        -0.131856        -0.059826
 C         1.318554         0.420022        -0.037780
 O         2.333303         0.240658         1.210004
 C         3.152805         0.606983         0.139874
 C         2.433024        -0.276701        -0.879256
 C         2.425859         0.350328        -2.301475
 C         2.375333         1.868920        -1.934359
 C         2.239328         1.760242        -0.360886
 O         2.152570         2.891384         0.461583
 H        -0.907748         0.307589         0.632467
 H        -0.467950        -0.082051        -1.027041
 H        -0.135062        -1.221669         0.141872
 H         4.252376         0.582685         0.322635
 H         2.703698        -1.294329        -0.723881
 H         3.499319         0.195787        -2.693968
 H         1.792519        -0.021814        -3.050809
 H         3.367117         2.385741        -2.281273
 H         1.629079         2.425567        -2.378243
 H         2.157812         2.590389         1.391325
