19
Iteration:  1913
 C        -0.161519         0.347316         0.076248
 C         1.471173         0.334240        -0.062630
 O         2.271461         0.104846         1.178709
 C         3.277715         0.542393         0.055485
 C         2.634890        -0.371061        -0.968464
 C         2.532577         0.410725        -2.291254
 C         2.265553         1.925902        -1.846189
 C         2.263825         1.627617        -0.360267
 O         1.902820         2.708049         0.445177
 H        -0.172302         1.186786         0.855758
 H        -0.469303         0.820042        -0.932116
 H        -0.447005        -0.630780         0.449599
 H         4.292436         0.677827         0.276706
 H         2.943728        -1.467855        -0.907364
 H         3.546080         0.344970        -2.851560
 H         1.741021         0.108127        -3.038132
 H         3.155347         2.534849        -2.266341
 H         1.380525         2.440397        -2.256121
 H         1.713122         2.307549         1.323245
