19
Iteration:  2794
 C         0.022586         0.297817         0.107494
 C         1.455608         0.292740        -0.043199
 O         2.248631         0.074644         1.147996
 C         3.238285         0.610288         0.108071
 C         2.574921        -0.309317        -1.000180
 C         2.520442         0.363253        -2.307573
 C         2.332052         1.845183        -1.887487
 C         2.222478         1.693601        -0.342019
 O         1.843896         2.802368         0.419811
 H        -0.372977         1.281169         0.572655
 H        -0.484722         0.229523        -0.882999
 H        -0.379285        -0.456539         0.715745
 H         4.312976         0.349822         0.424468
 H         2.849772        -1.401760        -0.803822
 H         3.603665         0.211013        -2.776885
 H         1.808448         0.022042        -3.046004
 H         3.141472         2.471734        -2.156803
 H         1.396458         2.417758        -2.160540
 H         2.126563         2.460191         1.274603
