19
Iteration:  2365
 C        -0.027445         0.000981         0.043099
 C         1.440840         0.418649        -0.106304
 O         2.180521         0.138884         1.204022
 C         3.173413         0.567343         0.138950
 C         2.533658        -0.273228        -1.017285
 C         2.309303         0.372466        -2.281473
 C         2.545140         1.911510        -1.852828
 C         2.331628         1.735841        -0.372026
 O         2.016849         2.848010         0.451281
 H        -0.385794         0.615116         0.815101
 H        -0.561622         0.032017        -0.898335
 H         0.132967        -1.083939         0.362234
 H         4.217777         0.723901         0.474731
 H         2.535094        -1.313315        -0.918630
 H         3.099644        -0.000675        -3.046180
 H         1.375713         0.146616        -2.609000
 H         3.501106         2.087889        -2.259102
 H         1.717446         2.633511        -2.345997
 H         1.418800         2.714684         1.185467
