19
Iteration:  1467charge 0 multiplicity 1
 C         0.044984        -0.051097        -0.089850
 C         1.454438         0.402025        -0.002067
 O         2.256469         0.227028         1.199282
 C         3.164242         0.636946         0.099022
 C         2.416242        -0.270048        -0.868052
 C         2.321042         0.322816        -2.242954
 C         2.336453         1.879591        -1.864133
 C         2.234107         1.701241        -0.357738
 O         2.149410         2.852267         0.389153
 H        -0.706792         0.479260         0.523333
 H        -0.253187         0.002917        -1.230473
 H        -0.022724        -1.099690         0.094896
 H         4.211713         0.697343         0.519507
 H         2.504904        -1.368752        -0.923939
 H         3.238041         0.307810        -2.864511
 H         1.417232         0.053678        -2.676963
 H         3.346158         2.191615        -2.070255
 H         1.614651         2.631424        -2.287441
 H         2.383653         2.529119         1.282655
