19
Iteration:  2580charge 0 multiplicity 1
 C        -0.031156         0.099060        -0.018224
 C         1.393609         0.440993        -0.019721
 O         2.261125         0.085628         1.171946
 C         3.188072         0.557003         0.142177
 C         2.417310        -0.280587        -0.962041
 C         2.574175         0.381226        -2.266882
 C         2.240860         1.902807        -1.852057
 C         2.233151         1.686795        -0.319196
 O         2.180996         2.857710         0.428434
 H        -0.760384         0.669506         0.557247
 H        -0.335167        -0.095832        -1.058838
 H         0.152285        -0.970234         0.302306
 H         4.229806         0.481209         0.351066
 H         2.456190        -1.376159        -0.906997
 H         3.546221         0.250624        -2.683793
 H         1.796569        -0.104964        -2.972175
 H         2.955737         2.680631        -2.318029
 H         1.266694         2.143924        -2.294434
 H         1.319992         2.928154         0.845418
