19
Iteration:  3974
 C        -0.186047        -0.066840         0.064290
 C         1.352556         0.311767        -0.061477
 O         2.237733         0.135476         1.129300
 C         3.198650         0.496797         0.059043
 C         2.524357        -0.287650        -1.012574
 C         2.540877         0.472997        -2.268551
 C         2.428255         1.961620        -1.841874
 C         2.191214         1.732881        -0.309087
 O         2.075392         2.898376         0.473826
 H        -0.880708         0.538822         0.605606
 H        -0.621359        -0.240994        -0.929419
 H        -0.117185        -0.942573         0.706674
 H         4.247399         0.697068         0.372638
 H         2.846560        -1.318178        -1.036378
 H         3.321473         0.190491        -2.955100
 H         1.601787         0.278463        -2.920137
 H         3.470271         2.490001        -2.043719
 H         1.792402         2.575037        -2.418288
 H         2.611677         2.876732         1.281489
