19
Iteration:  2983charge 0 multiplicity 1
 C        -0.095467         0.355882         0.130839
 C         1.459262         0.250756        -0.078595
 O         2.392359         0.159903         1.178323
 C         3.199201         0.600723         0.033087
 C         2.538648        -0.335197        -0.925472
 C         2.567744         0.368427        -2.221611
 C         2.458914         1.875746        -1.876917
 C         2.258295         1.667312        -0.489647
 O         1.735123         2.711692         0.450639
 H        -0.341394         1.219780         0.671906
 H        -0.441748         0.385152        -0.888757
 H        -0.488137        -0.589871         0.646107
 H         4.288571         0.702642         0.126359
 H         2.622079        -1.376691        -0.932089
 H         3.374202         0.084827        -2.911782
 H         1.611910         0.199486        -2.785654
 H         3.317120         2.467751        -1.932146
 H         1.668064         2.457955        -2.335335
 H         1.595832         2.238087         1.286828
