19
Iteration:  4931
 C         0.014101         0.306735         0.090448
 C         1.492657         0.370028         0.040310
 O         2.273025         0.066329         1.228204
 C         3.299151         0.584194         0.050519
 C         2.399291        -0.357998        -1.001092
 C         2.575638         0.455381        -2.384593
 C         2.372511         1.860925        -1.852346
 C         2.224479         1.678617        -0.315562
 O         1.828690         2.732291         0.359211
 H        -0.484248         0.868121         0.896162
 H        -0.416258         0.746095        -0.885544
 H        -0.400600        -0.728204         0.316806
 H         4.289659         0.501702         0.423987
 H         2.678680        -1.366887        -0.901372
 H         3.622733         0.244794        -2.633464
 H         2.012706         0.078009        -3.264808
 H         3.166099         2.606489        -2.062332
 H         1.492549         2.320256        -2.187292
 H         1.758687         2.315889         1.235459
