19
Iteration:  1529charge 0 multiplicity 1
 C        -0.023586         0.208471         0.160108
 C         1.369118         0.461223         0.000899
 O         2.262443         0.065518         1.218671
 C         3.178211         0.501925         0.075158
 C         2.488397        -0.328644        -0.980864
 C         2.700872         0.390662        -2.342601
 C         2.275932         1.916574        -1.948045
 C         2.175114         1.691458        -0.377732
 O         1.992869         2.815268         0.370733
 H        -0.607463         0.847370         0.885030
 H        -0.445004         0.146349        -0.774243
 H         0.045236        -0.816169         0.596406
 H         4.286263         0.598671         0.503698
 H         2.343510        -1.443421        -0.889974
 H         3.715991         0.105526        -2.640015
 H         2.072443        -0.101261        -3.167550
 H         3.039832         2.674069        -2.166540
 H         1.252442         2.193424        -2.271343
 H         2.125943         2.747292         1.316304
