19
Iteration:  2069
 C        -0.095796         0.251589         0.021676
 C         1.387885         0.355592        -0.113200
 O         2.409912         0.065463         1.155239
 C         3.230985         0.574984         0.093524
 C         2.460968        -0.325544        -0.919703
 C         2.498784         0.444035        -2.293848
 C         2.342670         1.863894        -1.845995
 C         2.236525         1.721102        -0.359375
 O         1.963023         2.743557         0.482681
 H        -0.469945         0.972423         0.753974
 H        -0.529129         0.490950        -1.036571
 H        -0.377861        -0.715172         0.546240
 H         4.334694         0.587304         0.275514
 H         2.714495        -1.337059        -0.988546
 H         3.533037         0.253442        -2.808924
 H         1.797773        -0.005622        -2.952497
 H         3.187002         2.441935        -2.191788
 H         1.389380         2.333508        -2.272268
 H         1.598570         2.545225         1.342308
