19
Iteration:   190
 C        -0.115690         0.036078        -0.022545
 C         1.377306         0.360378        -0.021403
 O         2.293330         0.146717         1.198669
 C         3.179769         0.599051         0.078444
 C         2.473920        -0.275772        -0.927175
 C         2.474460         0.417162        -2.240968
 C         2.345200         1.870741        -1.746154
 C         2.247462         1.665444        -0.327004
 O         2.105633         2.840101         0.292853
 H        -0.596085         0.726752         0.554235
 H        -0.377209         0.137429        -1.130105
 H        -0.209257        -0.964872         0.269504
 H         4.269852         0.638323         0.223458
 H         2.594363        -1.376615        -0.820914
 H         3.481664         0.308972        -2.642282
 H         1.804661        -0.010949        -3.028851
 H         3.164591         2.454197        -2.111221
 H         1.490355         2.561104        -2.088212
 H         2.090378         2.803350         1.261913
