19
Iteration:  2907charge 0 multiplicity 1
 C        -0.049716        -0.122054        -0.048764
 C         1.333602         0.356131         0.020429
 O         2.278081         0.207570         1.277829
 C         3.061528         0.538112         0.124441
 C         2.445150        -0.281943        -0.947421
 C         2.575402         0.447937        -2.289985
 C         2.225854         1.859443        -1.856818
 C         2.199928         1.681510        -0.342062
 O         2.265023         2.937293         0.329181
 H        -0.650468         0.468967         0.617901
 H        -0.347213         0.190153        -1.066450
 H        -0.204025        -1.287392         0.007964
 H         4.114414         0.511396         0.396668
 H         2.683313        -1.297161        -0.820262
 H         3.600784         0.457291        -2.699918
 H         1.900834         0.161573        -3.190395
 H         3.023317         2.527075        -2.152946
 H         1.277766         2.283852        -2.155111
 H         2.298740         3.064295         1.306186
