19
Iteration:  3953charge 0 multiplicity 1
 C        -0.008573        -0.156973         0.109848
 C         1.344439         0.323732        -0.115078
 O         2.169596         0.115270         1.208267
 C         3.101781         0.595881         0.141812
 C         2.439964        -0.249380        -0.983522
 C         2.508928         0.532354        -2.356693
 C         2.453981         1.990296        -1.808376
 C         2.209782         1.703571        -0.386545
 O         2.175235         2.810724         0.375028
 H        -0.519345         0.666070         0.651523
 H        -0.562249        -0.190399        -0.866657
 H        -0.034393        -1.029632         0.737543
 H         4.174823         0.706850         0.483371
 H         2.389988        -1.310461        -0.792340
 H         3.379343         0.449233        -2.981682
 H         1.639456         0.382584        -3.091425
 H         3.454686         2.586622        -1.848877
 H         1.780233         2.645816        -2.285665
 H         2.061228         2.545265         1.309874
