19
Iteration:  4056charge 0 multiplicity 1
 C         0.001677         0.313524         0.002632
 C         1.451578         0.403116        -0.083368
 O         2.315689         0.059744         1.182336
 C         3.233965         0.493089         0.159647
 C         2.561894        -0.314660        -0.940451
 C         2.603465         0.401376        -2.299992
 C         2.223816         1.896823        -1.927648
 C         2.106424         1.667227        -0.439134
 O         1.922736         2.753544         0.532523
 H        -0.188470         0.958180         0.945860
 H        -0.445705         0.741175        -0.891085
 H        -0.343826        -0.788836         0.079780
 H         4.310613         0.589941         0.271077
 H         2.481815        -1.431141        -0.768796
 H         3.630526         0.490123        -2.788196
 H         1.890597         0.057758        -3.005499
 H         2.989413         2.483363        -2.235006
 H         1.228471         2.369372        -2.174303
 H         2.320279         2.329017         1.339727
