19
Iteration:  1158charge 0 multiplicity 1
 C         0.028933         0.140002         0.011083
 C         1.417022         0.363322        -0.076744
 O         2.275365         0.084368         1.108488
 C         3.186033         0.602113         0.124485
 C         2.532245        -0.334665        -0.924264
 C         2.452338         0.335791        -2.246119
 C         2.284001         1.868534        -1.879728
 C         2.206971         1.723001        -0.374218
 O         2.033544         2.894623         0.474441
 H        -0.444600         0.947677         0.630149
 H        -0.253836         0.366818        -1.001594
 H        -0.273991        -0.900367         0.423108
 H         4.187197         0.836391         0.536844
 H         2.596283        -1.367534        -0.714836
 H         3.439545         0.067391        -2.812868
 H         1.715007        -0.106188        -2.852117
 H         3.070401         2.454809        -2.238236
 H         1.362334         2.165358        -2.421463
 H         2.253536         2.639482         1.378679
