19
Iteration:  1591
 C        -0.081845         0.286490         0.091185
 C         1.451969         0.368922        -0.037411
 O         2.244201         0.148169         1.167041
 C         3.315741         0.515674         0.142779
 C         2.580801        -0.249815        -0.983292
 C         2.525192         0.354691        -2.375955
 C         2.339743         1.796852        -1.914975
 C         2.261560         1.677924        -0.294490
 O         1.875442         2.814111         0.445566
 H        -0.531890         0.915575         0.901412
 H        -0.755519         0.522370        -0.835491
 H        -0.193969        -0.855828         0.326770
 H         4.313089         0.464123         0.402795
 H         2.636923        -1.381112        -0.843291
 H         3.410172         0.029637        -2.963336
 H         1.694512        -0.194037        -2.942403
 H         3.080611         2.521485        -2.357818
 H         1.475767         2.128436        -2.505928
 H         2.123027         2.591163         1.353163
