19
Iteration:  2076
 C        -0.047968         0.319900        -0.028732
 C         1.384003         0.318450        -0.093993
 O         2.379610         0.016037         1.206501
 C         3.195932         0.584837         0.084245
 C         2.524506        -0.212610        -0.982904
 C         2.531140         0.381566        -2.291956
 C         2.279920         1.831302        -1.875107
 C         2.240831         1.699425        -0.336138
 O         1.975742         2.767443         0.491178
 H        -0.264108         1.002191         0.809301
 H        -0.786600         0.430222        -0.822499
 H        -0.274817        -0.596678         0.470744
 H         4.233802         0.680412         0.318422
 H         2.749758        -1.402746        -0.917271
 H         3.509320         0.166869        -2.726627
 H         1.716818         0.053763        -3.015260
 H         3.052532         2.598794        -2.265247
 H         1.311654         2.239663        -2.163329
 H         1.656538         2.356350         1.313560
