19
Iteration:   481charge 0 multiplicity 1
 C        -0.064035         0.327871         0.142303
 C         1.413460         0.312005        -0.068320
 O         2.298593         0.173998         1.177424
 C         3.196512         0.545957         0.176180
 C         2.577247        -0.352790        -0.975233
 C         2.591926         0.450998        -2.321613
 C         2.236994         1.863492        -1.916266
 C         2.228613         1.637288        -0.440475
 O         1.960471         2.690607         0.410616
 H        -0.292354         1.176972         0.807688
 H        -0.547968         0.507129        -0.875882
 H        -0.548259        -0.545643         0.503116
 H         4.213240         0.600076         0.589845
 H         2.741704        -1.564742        -0.811772
 H         3.609268         0.519849        -2.626901
 H         2.020178         0.047549        -3.237990
 H         3.026766         2.606251        -2.117986
 H         1.273511         2.196801        -2.247688
 H         2.075052         2.341883         1.315961
