19
Iteration:  4913
 C        -0.083400         0.316857         0.177865
 C         1.418259         0.293962        -0.121928
 O         2.321825         0.049137         1.095272
 C         3.208549         0.556285         0.140095
 C         2.582127        -0.298681        -0.964363
 C         2.615919         0.395337        -2.268448
 C         2.391240         1.902885        -1.887850
 C         2.228526         1.667668        -0.363482
 O         1.836010         2.767414         0.405062
 H        -0.296373         0.892232         1.067132
 H        -0.660700         0.857297        -0.580135
 H        -0.584987        -0.594165         0.265720
 H         4.282815         0.708977         0.303635
 H         2.633795        -1.437407        -0.866259
 H         3.494642         0.167820        -2.888620
 H         1.817575         0.009951        -2.875224
 H         3.232143         2.469623        -2.163266
 H         1.396465         2.420547        -2.278927
 H         1.711714         2.564256         1.332434
