19
Iteration:  2758charge 0 multiplicity 1
 C        -0.145694         0.012099         0.000681
 C         1.402036         0.375825        -0.054801
 O         2.281592         0.226354         1.232077
 C         3.161196         0.591161         0.125730
 C         2.488412        -0.337173        -1.002453
 C         2.540670         0.417012        -2.340825
 C         2.212576         1.854201        -1.824476
 C         2.285641         1.708840        -0.344213
 O         2.156910         2.855812         0.430096
 H        -0.641641         0.788863         0.540259
 H        -0.497453        -0.028433        -1.036989
 H        -0.271814        -0.987172         0.553875
 H         4.200814         0.325835         0.436379
 H         2.755239        -1.408630        -1.001527
 H         3.653459         0.385273        -2.525622
 H         2.075612        -0.035996        -3.213246
 H         3.096737         2.504854        -2.278380
 H         1.261617         2.234087        -2.229280
 H         1.901058         2.594613         1.316267
