19
Iteration:  1197
 C        -0.049626         0.392520         0.179329
 C         1.478839         0.287861        -0.009301
 O         2.340041         0.206226         1.166716
 C         3.191156         0.472178         0.084682
 C         2.562120        -0.398208        -1.014336
 C         2.701184         0.439006        -2.300731
 C         2.220550         1.830143        -1.834194
 C         2.179511         1.626167        -0.363130
 O         1.893366         2.726625         0.348193
 H        -0.308297         1.252124         0.728414
 H        -0.469883         0.542044        -0.896082
 H        -0.629998        -0.419608         0.480607
 H         4.313975         0.593952         0.271197
 H         2.580111        -1.548552        -1.145280
 H         3.698492         0.434364        -2.670323
 H         1.991480         0.215223        -3.208534
 H         2.866734         2.783785        -2.071033
 H         1.168029         2.120519        -1.988199
 H         1.540212         2.439497         1.221798
