19
Iteration:  1346charge 0 multiplicity 1
 C        -0.082767         0.198831         0.087193
 C         1.414699         0.301757        -0.047641
 O         2.341732         0.226529         1.186879
 C         3.220832         0.516597         0.138843
 C         2.521866        -0.431922        -0.957918
 C         2.565913         0.426511        -2.360598
 C         2.272370         1.871860        -1.837730
 C         2.176797         1.640135        -0.340849
 O         2.015325         2.860599         0.365705
 H        -0.431523         1.014874         0.851594
 H        -0.604276         0.364219        -0.911533
 H        -0.459061        -0.771586         0.531290
 H         4.316327         0.633705         0.333962
 H         2.731795        -1.544941        -0.922954
 H         3.646529         0.446028        -2.820136
 H         1.879906         0.020774        -3.088710
 H         3.061663         2.550773        -2.096288
 H         1.273242         2.283011        -2.219660
 H         1.685530         2.467792         1.194033
