19
Iteration:  2945charge 0 multiplicity 1
 C         0.024673         0.105169         0.022362
 C         1.446244         0.318596        -0.086521
 O         2.229785         0.132327         1.197416
 C         3.170399         0.594845         0.175328
 C         2.510144        -0.337209        -0.977749
 C         2.524246         0.357946        -2.295925
 C         2.286942         1.854433        -1.869685
 C         2.263165         1.784927        -0.320617
 O         2.006357         2.886914         0.406195
 H        -0.430106         0.919195         0.679728
 H        -0.442550         0.253696        -0.976314
 H        -0.293213        -0.831215         0.434353
 H         4.250006         0.508062         0.403213
 H         2.641903        -1.475400        -0.954519
 H         3.424634         0.286571        -2.917285
 H         1.724315        -0.131776        -2.801486
 H         3.118828         2.421367        -2.419359
 H         1.330175         2.241483        -2.309178
 H         2.073645         2.503997         1.308925
