19
Iteration:  4073
 C        -0.092537         0.140798         0.087527
 C         1.428554         0.396445        -0.031334
 O         2.286203         0.126612         1.134944
 C         3.278215         0.450045         0.083561
 C         2.439102        -0.326539        -0.973677
 C         2.636393         0.432776        -2.312813
 C         2.295056         1.938656        -1.900642
 C         2.232848         1.764145        -0.334744
 O         1.926514         2.787054         0.472714
 H        -0.564953         0.658071         0.906854
 H        -0.675024         0.593665        -0.760406
 H        -0.279569        -0.933805         0.097106
 H         4.348948         0.281415         0.402405
 H         2.559303        -1.399785        -1.069393
 H         3.643427         0.222051        -2.588240
 H         1.894567        -0.097786        -2.997694
 H         3.134978         2.751125        -2.112501
 H         1.409228         2.187384        -2.470368
 H         2.396050         2.707914         1.325379
