19
Iteration:  1098charge 0 multiplicity 1
 C        -0.011637        -0.150884         0.042314
 C         1.370537         0.443191        -0.058007
 O         2.149661         0.183328         1.199055
 C         3.180326         0.582659         0.018599
 C         2.440675        -0.250620        -0.940090
 C         2.402797         0.346952        -2.348349
 C         2.487077         1.857309        -1.833014
 C         2.254896         1.794011        -0.294470
 O         2.117162         2.926398         0.441418
 H        -0.558685         0.447329         0.792081
 H        -0.512243        -0.117491        -0.993266
 H         0.105191        -1.171251         0.319170
 H         4.262699         0.597046         0.254812
 H         2.612444        -1.370995        -0.804934
 H         3.217819         0.152561        -2.924974
 H         1.513970        -0.053680        -2.870707
 H         3.446054         2.381619        -2.146290
 H         1.730663         2.376983        -2.422480
 H         2.297902         2.685938         1.376974
