19
Iteration:  3933charge 0 multiplicity 1
 C        -0.058138        -0.081890         0.089214
 C         1.352276         0.411276        -0.044711
 O         2.166901         0.137764         1.123535
 C         3.236483         0.532725         0.071886
 C         2.471262        -0.289307        -1.040846
 C         2.487388         0.454764        -2.313566
 C         2.452529         1.918071        -1.825178
 C         2.257459         1.718717        -0.349921
 O         2.105539         2.917816         0.515642
 H        -0.730027         0.514745         0.811093
 H        -0.588683        -0.154283        -0.954691
 H         0.115544        -1.069158         0.386100
 H         4.329351         0.375228         0.350752
 H         2.564247        -1.408013        -1.184422
 H         3.465378         0.271972        -2.802490
 H         1.698293         0.065454        -2.980602
 H         3.280150         2.605224        -2.031223
 H         1.570974         2.425305        -2.184184
 H         1.432656         2.663693         1.191905
