19
Iteration:  4609charge 0 multiplicity 1
 C        -0.053001         0.197473         0.101510
 C         1.450579         0.351979         0.018931
 O         2.246532         0.145243         1.134736
 C         3.229322         0.475238         0.063515
 C         2.502737        -0.301097        -0.945205
 C         2.574231         0.420255        -2.243800
 C         2.362113         1.927521        -1.863513
 C         2.235430         1.702035        -0.375117
 O         1.921565         2.806902         0.374749
 H        -0.707154         0.993180         0.546096
 H        -0.419637        -0.049730        -0.939064
 H        -0.209492        -0.686403         0.646083
 H         4.316858         0.407912         0.261571
 H         2.489427        -1.436726        -0.996144
 H         3.483534         0.233793        -2.799940
 H         1.725410         0.126263        -2.884845
 H         3.363018         2.404707        -2.040252
 H         1.555576         2.343338        -2.402116
 H         1.979363         2.296272         1.250353
