19
Iteration:  1052charge 0 multiplicity 1
 C        -0.076934         0.271260         0.110146
 C         1.448382         0.294870        -0.018541
 O         2.265167         0.160484         1.181168
 C         3.232203         0.511813         0.066056
 C         2.536020        -0.373068        -1.008306
 C         2.601859         0.495593        -2.281855
 C         2.256121         1.858977        -1.819649
 C         2.267520         1.601323        -0.357551
 O         1.910926         2.812420         0.355075
 H        -0.336978         1.152743         0.756671
 H        -0.378205         0.325078        -0.890038
 H        -0.266406        -0.754443         0.500270
 H         4.259015         0.485757         0.239671
 H         2.725061        -1.427380        -1.068160
 H         3.602309         0.329250        -2.641004
 H         1.892288         0.015131        -3.031748
 H         3.155886         2.534221        -2.022991
 H         1.312255         2.490103        -2.117337
 H         1.916591         2.494802         1.278418
