19
Iteration:   909charge 0 multiplicity 1
 C        -0.069518        -0.058085         0.094978
 C         1.380974         0.240152        -0.054158
 O         2.147897         0.169347         1.182430
 C         3.180065         0.579501         0.108117
 C         2.477631        -0.278356        -0.966111
 C         2.483600         0.505935        -2.327924
 C         2.474785         1.886822        -1.807483
 C         2.305059         1.716386        -0.353204
 O         2.085186         2.899402         0.342842
 H        -0.451402         0.769209         0.812020
 H        -0.610066        -0.002795        -0.830699
 H        -0.327504        -1.116971         0.510252
 H         4.198466         0.465945         0.346193
 H         2.748827        -1.335599        -1.073360
 H         3.207411         0.089310        -2.909434
 H         1.494135         0.268052        -2.870780
 H         3.258507         2.666392        -1.988517
 H         1.529001         2.432583        -2.149206
 H         2.317984         2.703002         1.284771
