19
Iteration:  3419charge 0 multiplicity 1
 C        -0.018844        -0.027573        -0.141080
 C         1.365742         0.421456         0.026217
 O         2.308068         0.157660         1.164691
 C         3.179290         0.619941         0.152999
 C         2.506968        -0.260272        -0.830118
 C         2.295521         0.328552        -2.256248
 C         2.393478         1.834745        -1.839394
 C         2.250639         1.726338        -0.373048
 O         2.120425         2.899958         0.398556
 H        -0.761648         0.583986         0.322085
 H        -0.291389         0.117422        -1.198031
 H        -0.189672        -1.161505         0.115087
 H         4.235292         0.941310         0.425235
 H         2.731955        -1.346912        -0.943924
 H         3.119174         0.084398        -3.011773
 H         1.412052        -0.057138        -2.781423
 H         3.338932         2.251394        -2.034197
 H         1.631971         2.594453        -2.209617
 H         2.132697         2.502674         1.307437
