19
Iteration:  3215
 C        -0.026559        -0.018278         0.040071
 C         1.403992         0.521649        -0.115882
 O         2.219948         0.135458         1.216056
 C         3.215353         0.606284         0.146648
 C         2.508598        -0.259546        -0.945064
 C         2.539859         0.393427        -2.326310
 C         2.212624         1.790703        -1.869655
 C         2.215965         1.726553        -0.362814
 O         2.167463         2.846731         0.436302
 H        -0.691106         0.696582         0.577766
 H        -0.548805        -0.054980        -0.985432
 H        -0.314307        -0.922769         0.610172
 H         4.250315         0.769410         0.407427
 H         2.685376        -1.391604        -0.803100
 H         3.559364         0.118627        -2.644521
 H         1.886187        -0.041053        -3.185707
 H         2.996465         2.521582        -2.346963
 H         1.163669         2.034454        -2.325606
 H         1.868003         2.575760         1.325879
