19
Iteration:  3353charge 0 multiplicity 1
 C        -0.038443         0.279823         0.176888
 C         1.446434         0.367728        -0.051790
 O         2.226510         0.146646         1.138134
 C         3.155758         0.533230         0.110121
 C         2.543953        -0.368374        -1.050047
 C         2.731778         0.347100        -2.322755
 C         2.261278         1.824836        -1.955301
 C         2.184769         1.662824        -0.400274
 O         1.951848         2.866320         0.517110
 H        -0.388971         1.143632         0.734419
 H        -0.578376         0.223785        -0.756067
 H        -0.179800        -0.634734         0.920628
 H         4.232464         0.872737         0.263724
 H         2.485408        -1.498123        -1.036268
 H         3.830434         0.155831        -2.593137
 H         2.283427        -0.145060        -3.209941
 H         2.920491         2.595061        -2.190259
 H         1.190831         2.088512        -2.175872
 H         1.807395         2.369779         1.343681
