19
Iteration:  3281
 C        -0.057694         0.058830        -0.004518
 C         1.438115         0.396874        -0.047627
 O         2.265295         0.069603         1.171759
 C         3.253433         0.627714         0.109549
 C         2.559675        -0.317170        -0.874388
 C         2.368855         0.317098        -2.244648
 C         2.429849         1.863112        -1.872498
 C         2.234345         1.776679        -0.341143
 O         2.006005         2.908574         0.376573
 H        -0.559396         0.528585         0.891980
 H        -0.483658         0.516809        -0.950662
 H        -0.064037        -1.018866         0.047243
 H         4.252796         0.747805         0.499719
 H         2.592076        -1.438475        -0.753029
 H         3.104185         0.076783        -3.006642
 H         1.524143        -0.056989        -2.858253
 H         3.318432         2.444734        -2.363098
 H         1.520181         2.392370        -2.331525
 H         1.625704         2.625611         1.225896
