19
Iteration:  2588
 C        -0.057343         0.102343        -0.017927
 C         1.421285         0.441759        -0.025896
 O         2.227315         0.097764         1.166731
 C         3.250826         0.481040         0.121033
 C         2.477344        -0.355140        -0.950040
 C         2.601363         0.459483        -2.217340
 C         2.208850         1.806867        -1.907580
 C         2.208051         1.738043        -0.386778
 O         2.156277         2.877984         0.474764
 H        -0.601325         0.829954         0.685763
 H        -0.436473         0.081084        -1.048832
 H        -0.000223        -0.795711         0.541668
 H         4.316230         0.599844         0.363417
 H         2.314704        -1.474586        -1.074445
 H         3.544905         0.421660        -2.713719
 H         1.878658         0.136237        -2.987740
 H         2.966071         2.601466        -2.234934
 H         1.150404         2.109030        -2.197262
 H         1.299697         2.928784         0.890796
