19
Iteration:  3586charge 0 multiplicity 1
 C        -0.006825        -0.079716        -0.123327
 C         1.402547         0.415830        -0.097913
 O         2.298155         0.266817         1.229127
 C         3.242274         0.548822         0.182352
 C         2.470178        -0.344864        -0.931674
 C         2.330373         0.415669        -2.284811
 C         2.390512         1.944605        -1.850600
 C         2.273578         1.722451        -0.322083
 O         2.052665         2.813036         0.458089
 H        -0.606381         0.775999         0.343240
 H        -0.432678        -0.202335        -1.174407
 H        -0.188660        -0.976642         0.343843
 H         4.280475         0.541917         0.421035
 H         2.224900        -1.409623        -1.000989
 H         3.129471         0.108230        -3.059376
 H         1.457121         0.009793        -2.865601
 H         3.375099         2.276986        -2.054466
 H         1.584944         2.589834        -2.334143
 H         2.220797         2.685948         1.398517
