19
Iteration:  1848charge 0 multiplicity 1
 C        -0.081494        -0.074286         0.124349
 C         1.321499         0.332187        -0.084647
 O         2.212257         0.120813         1.179171
 C         3.156136         0.546676         0.131936
 C         2.541621        -0.283087        -1.014198
 C         2.524492         0.470322        -2.332316
 C         2.370909         1.893810        -1.858337
 C         2.207915         1.763746        -0.338831
 O         2.204013         2.893694         0.414681
 H        -0.697571         0.778418         0.604868
 H        -0.792514        -0.133867        -0.845316
 H        -0.420545        -1.056813         0.434616
 H         4.164649         0.807833         0.431699
 H         2.699183        -1.380282        -0.887739
 H         3.395715         0.173409        -3.073261
 H         1.608481         0.193453        -2.919210
 H         3.266466         2.610537        -1.854550
 H         1.560693         2.349373        -2.427737
 H         1.955172         2.778670         1.368842
