19
Iteration:  2591
 C        -0.052480         0.111342        -0.004321
 C         1.441848         0.434875        -0.039969
 O         2.214169         0.110822         1.164757
 C         3.264300         0.444092         0.103597
 C         2.503571        -0.371500        -0.934052
 C         2.610931         0.473870        -2.227301
 C         2.189623         1.793931        -1.911440
 C         2.208044         1.750211        -0.397794
 O         2.146669         2.883376         0.486514
 H        -0.535711         0.842025         0.640388
 H        -0.543989         0.156317        -0.997878
 H        -0.260312        -0.821021         0.647114
 H         4.273808         0.633855         0.391554
 H         2.348839        -1.440589        -1.049589
 H         3.562065         0.468360        -2.691424
 H         1.894243         0.156468        -3.088161
 H         2.966078         2.598615        -2.220935
 H         1.169603         2.090662        -2.173090
 H         1.258341         2.907911         0.930339
