19
Iteration:  2299charge 0 multiplicity 1
 C        -0.091900         0.197707         0.081168
 C         1.421839         0.389333         0.020944
 O         2.287128         0.090114         1.164875
 C         3.234525         0.536825         0.067693
 C         2.478878        -0.317644        -1.025672
 C         2.706200         0.359450        -2.305687
 C         2.251662         1.885385        -1.935387
 C         2.183531         1.697851        -0.313526
 O         1.995001         2.836491         0.482914
 H        -0.505730         1.020250         0.555170
 H        -0.542651         0.537506        -0.850954
 H        -0.531851        -0.791488         0.379680
 H         4.307704         0.683065         0.317094
 H         2.289671        -1.402012        -1.121086
 H         3.827967         0.242959        -2.652047
 H         2.109862        -0.037936        -3.045423
 H         2.836554         2.705512        -2.271319
 H         1.105748         1.860592        -2.267875
 H         2.259876         2.511480         1.390636
