19
Iteration:  2514
 C        -0.041904         0.087396         0.074109
 C         1.444123         0.356901        -0.082283
 O         2.182740         0.181590         1.211694
 C         3.268224         0.615183         0.177317
 C         2.424211        -0.313097        -1.049182
 C         2.406537         0.408766        -2.385586
 C         2.493282         1.822826        -1.886461
 C         2.325598         1.717396        -0.274084
 O         1.927374         2.792057         0.428621
 H        -0.571440         0.526079         0.910155
 H        -0.539635         0.228205        -0.928826
 H         0.122968        -1.033889         0.232938
 H         4.247485         0.830871         0.551384
 H         2.597195        -1.420506        -0.939858
 H         3.240404         0.108542        -2.973054
 H         1.448302         0.114997        -3.021627
 H         3.541680         2.282076        -2.023907
 H         1.824874         2.554294        -2.345279
 H         2.363104         3.030487         1.277714
