19
Iteration:  2343
 C        -0.058983         0.056893         0.079600
 C         1.429310         0.271409        -0.008378
 O         2.214310         0.143728         1.151506
 C         3.295447         0.514121         0.193105
 C         2.489068        -0.288986        -0.927356
 C         2.411880         0.473642        -2.410140
 C         2.494589         1.919744        -1.829779
 C         2.188148         1.691380        -0.384624
 O         2.025894         2.880012         0.366415
 H        -0.422044         0.748449         0.798090
 H        -0.552606         0.199768        -0.882161
 H        -0.146377        -1.010867         0.405504
 H         4.290355         0.455395         0.666394
 H         2.586373        -1.345765        -0.860568
 H         3.151474         0.130169        -3.216843
 H         1.457606         0.411742        -2.768796
 H         3.435733         2.414695        -1.884499
 H         1.672856         2.450591        -2.453925
 H         1.578036         2.653044         1.227704
