19
Iteration:   430charge 0 multiplicity 1
 C        -0.141290         0.050523         0.034771
 C         1.359487         0.334008        -0.036941
 O         2.340675         0.012409         1.237945
 C         3.222240         0.653433         0.153244
 C         2.465305        -0.261799        -0.944101
 C         2.465523         0.367223        -2.343345
 C         2.410083         1.958294        -1.937206
 C         2.252339         1.698201        -0.317830
 O         2.062453         2.904030         0.366409
 H        -0.607553         0.652236         0.797508
 H        -0.700795         0.072755        -0.980112
 H        -0.333282        -1.004318         0.379282
 H         4.291263         0.775507         0.395338
 H         2.464840        -1.389735        -0.849613
 H         3.385727        -0.006977        -2.806473
 H         1.561848        -0.035891        -2.919195
 H         3.403242         2.336275        -2.056211
 H         1.620949         2.611365        -2.393632
 H         1.950151         2.872659         1.329355
