19
Iteration:  4178charge 0 multiplicity 1
 C        -0.120175         0.190964        -0.072796
 C         1.381863         0.322668         0.044845
 O         2.331146         0.185760         1.216297
 C         3.242299         0.573748         0.040132
 C         2.534011        -0.326915        -0.975788
 C         2.514492         0.401311        -2.369008
 C         2.283394         1.903864        -1.821728
 C         2.265055         1.651341        -0.351536
 O         2.011452         2.794390         0.513776
 H        -0.543798         0.935657         0.560103
 H        -0.313140         0.116568        -1.123236
 H        -0.495090        -0.753885         0.462328
 H         4.292151         0.596537         0.271727
 H         2.701598        -1.387737        -0.779386
 H         3.432463         0.240909        -3.016886
 H         1.761181        -0.085320        -2.992844
 H         3.036774         2.513551        -2.166033
 H         1.357619         2.310676        -2.332428
 H         1.966084         2.373449         1.381368
