19
Iteration:  3699charge 0 multiplicity 1
 C        -0.048313         0.370727         0.034508
 C         1.480945         0.381645        -0.020901
 O         2.277812         0.090674         1.122897
 C         3.259646         0.620811         0.100376
 C         2.548089        -0.309536        -1.010419
 C         2.587299         0.350908        -2.347925
 C         2.212580         1.808959        -1.829439
 C         2.309646         1.639111        -0.319039
 O         1.885767         2.728843         0.494138
 H        -0.384018         1.025513         0.858838
 H        -0.394324         0.862096        -0.846908
 H        -0.568677        -0.657761         0.040292
 H         4.299304         0.610729         0.410748
 H         2.952383        -1.348384        -0.987937
 H         3.632538         0.219752        -2.676470
 H         2.010879        -0.142897        -3.202527
 H         2.731882         2.813928        -2.015485
 H         1.254258         2.104118        -2.125910
 H         1.536695         2.187616         1.257364
