19
Iteration:  1294
 C        -0.061021        -0.140434        -0.081494
 C         1.394922         0.421875        -0.019680
 O         2.250571         0.214599         1.246015
 C         3.300154         0.581297         0.097314
 C         2.467125        -0.303688        -0.924402
 C         2.307464         0.335716        -2.330589
 C         2.383965         1.886226        -1.845863
 C         2.257870         1.724440        -0.306076
 O         2.161883         3.005102         0.418782
 H        -0.734425         0.379410         0.584967
 H        -0.517120        -0.098207        -1.139162
 H        -0.081765        -1.147212         0.195370
 H         4.307994         0.570185         0.372997
 H         2.354405        -1.436166        -0.676846
 H         2.989962         0.098213        -3.213491
 H         1.388144        -0.157316        -2.873860
 H         3.486301         2.220818        -2.076286
 H         1.589434         2.540934        -2.275342
 H         1.905338         2.608128         1.269424
