19
Iteration:  1481
 C        -0.074025        -0.075834        -0.073070
 C         1.389740         0.330753         0.015737
 O         2.237582         0.215598         1.292659
 C         3.224708         0.611281         0.177723
 C         2.546346        -0.290839        -0.920223
 C         2.374702         0.456487        -2.299489
 C         2.327709         1.898099        -1.891107
 C         2.152341         1.691147        -0.404136
 O         2.231547         2.856757         0.354841
 H        -0.632426         0.612415         0.558436
 H        -0.410690         0.100610        -1.213103
 H        -0.241231        -1.125221         0.301741
 H         4.215833         0.767239         0.292661
 H         2.708750        -1.348186        -0.745773
 H         3.067676         0.035532        -3.043810
 H         1.408563         0.097126        -2.742665
 H         3.275792         2.488501        -2.046403
 H         1.464144         2.333918        -2.406819
 H         2.230559         2.577485         1.294713
