19
Iteration:  1200
 C        -0.027119         0.402980         0.166465
 C         1.470331         0.268202        -0.011882
 O         2.334457         0.197220         1.168241
 C         3.179405         0.485969         0.086217
 C         2.545147        -0.404109        -1.006642
 C         2.704250         0.451457        -2.280156
 C         2.216007         1.816700        -1.833345
 C         2.168108         1.655651        -0.392449
 O         1.897099         2.715878         0.351740
 H        -0.277078         1.269326         0.807383
 H        -0.476292         0.588951        -0.878639
 H        -0.596893        -0.505271         0.619571
 H         4.356717         0.518883         0.139992
 H         2.647941        -1.453229        -1.207248
 H         3.668726         0.553011        -2.701829
 H         2.148307         0.151785        -3.119333
 H         2.901072         2.606538        -2.087646
 H         1.239244         2.197559        -1.984151
 H         1.497426         2.475420         1.222064
