19
Iteration:  4995
 C        -0.051021        -0.058761        -0.070067
 C         1.455004         0.425457        -0.053338
 O         2.189443         0.179324         1.184033
 C         3.167261         0.549112         0.153965
 C         2.532561        -0.321778        -0.988889
 C         2.477268         0.374092        -2.313697
 C         2.249816         1.918670        -1.827720
 C         2.123327         1.719832        -0.395188
 O         2.247921         2.891781         0.506162
 H        -0.598712         0.782709         0.388017
 H        -0.351066        -0.241162        -1.136922
 H        -0.190390        -1.040354         0.550665
 H         4.216007         0.509837         0.650846
 H         2.541460        -1.357188        -0.931386
 H         3.463326         0.276317        -2.788768
 H         1.565678         0.215100        -2.977530
 H         3.205675         2.555697        -2.150850
 H         1.405369         2.362067        -2.269521
 H         2.182583         2.668663         1.432733
