19
Iteration:  3025charge 0 multiplicity 1
 C        -0.081549         0.129784         0.111422
 C         1.424194         0.374734        -0.067269
 O         2.236515         0.113615         1.149767
 C         3.230131         0.548416         0.118773
 C         2.555617        -0.339627        -0.967392
 C         2.559704         0.441259        -2.223261
 C         2.362387         1.893019        -1.846036
 C         2.220065         1.664902        -0.362244
 O         1.952642         2.852412         0.328468
 H        -0.475406         0.929682         0.761515
 H        -0.603135         0.063497        -0.845142
 H        -0.129318        -0.848097         0.622721
 H         4.273135         0.744136         0.454624
 H         2.796646        -1.371327        -1.079113
 H         3.454230         0.178520        -2.802371
 H         1.815837         0.027493        -2.859047
 H         3.042421         2.609721        -2.256228
 H         1.312770         2.177457        -2.230856
 H         2.123191         2.627073         1.280299
