19
Iteration:  4888charge 0 multiplicity 1
 C        -0.013980         0.196348         0.139215
 C         1.427464         0.324656        -0.032773
 O         2.165448         0.125354         1.163421
 C         3.211294         0.554599         0.119626
 C         2.619674        -0.302686        -1.013493
 C         2.571792         0.390414        -2.373207
 C         2.371146         1.866433        -1.857293
 C         2.165918         1.639752        -0.373488
 O         1.962558         2.837933         0.427941
 H        -0.403687         0.585329         1.084952
 H        -0.698667         0.738760        -0.564798
 H        -0.435521        -0.856701         0.170625
 H         4.193964         0.827049         0.312737
 H         2.704368        -1.370352        -0.950147
 H         3.476534         0.278407        -2.971992
 H         1.817190        -0.002587        -3.067691
 H         3.299025         2.416231        -1.967308
 H         1.511687         2.489519        -2.307365
 H         2.129975         2.588044         1.363492
