19
Iteration:  2831
 C        -0.060698         0.317793         0.108697
 C         1.449126         0.284956        -0.015824
 O         2.380182         0.142858         1.178223
 C         3.241652         0.536795         0.064057
 C         2.493400        -0.278396        -0.905984
 C         2.496036         0.400204        -2.284519
 C         2.444437         1.895001        -1.810350
 C         2.197758         1.656300        -0.432970
 O         1.799168         2.729885         0.367057
 H        -0.403951         1.159180         0.685348
 H        -0.373830         0.359485        -0.946352
 H        -0.403785        -0.766187         0.347577
 H         4.314870         0.388228         0.114815
 H         2.830876        -1.274101        -0.923100
 H         3.450103         0.313114        -2.799294
 H         1.685551         0.049223        -3.042774
 H         3.411825         2.387383        -2.030313
 H         1.588787         2.420168        -2.213157
 H         1.770909         2.388791         1.276633
