19
Iteration:  2899
 C        -0.026803        -0.102890        -0.041858
 C         1.371223         0.280574         0.001798
 O         2.219659         0.224501         1.266638
 C         3.108727         0.523913         0.146655
 C         2.417573        -0.337074        -0.891078
 C         2.551391         0.468214        -2.334034
 C         2.255807         1.923470        -1.892815
 C         2.191676         1.709142        -0.292112
 O         2.250933         2.969823         0.308378
 H        -0.569716         0.436575         0.729673
 H        -0.387264         0.159463        -1.056204
 H        -0.119462        -1.285940         0.024825
 H         4.164788         0.583595         0.295629
 H         2.672497        -1.419063        -0.823778
 H         3.570764         0.243057        -2.613193
 H         1.873358         0.135023        -3.189747
 H         2.975832         2.844485        -2.061237
 H         1.261663         2.183310        -2.195843
 H         2.478398         2.578719         1.203617
