19
Iteration:   928
 C        -0.128705        -0.134976         0.104669
 C         1.334599         0.325638        -0.053053
 O         2.228789         0.087929         1.167668
 C         3.158906         0.577554         0.154699
 C         2.476525        -0.258979        -0.949153
 C         2.427605         0.417408        -2.307527
 C         2.475101         1.962090        -1.861547
 C         2.181770         1.741299        -0.371266
 O         2.226661         2.934195         0.350709
 H        -0.687287         0.461180         0.792097
 H        -0.551303        -0.150054        -0.950088
 H        -0.053082        -1.184399         0.437724
 H         4.165768         0.854591         0.559836
 H         2.631243        -1.390881        -0.866943
 H         3.301455         0.431764        -2.997579
 H         1.590683         0.163317        -2.941172
 H         3.519280         2.367881        -1.907602
 H         1.839637         2.797328        -2.355393
 H         1.735034         2.879489         1.200433
