19
Iteration:  3118charge 0 multiplicity 1
 C        -0.018356         0.138383         0.043743
 C         1.428358         0.356256        -0.017219
 O         2.279721         0.179323         1.195944
 C         3.239649         0.607235         0.134834
 C         2.577995        -0.256554        -0.927031
 C         2.468384         0.341595        -2.330325
 C         2.342913         1.876532        -1.841441
 C         2.169156         1.638829        -0.364491
 O         2.010881         2.768749         0.352828
 H        -0.600999         0.682045         0.840913
 H        -0.518828         0.432114        -0.913004
 H        -0.423906        -0.844367         0.147697
 H         4.247975         0.890308         0.405764
 H         2.867996        -1.352264        -0.861097
 H         3.200777         0.274995        -3.134646
 H         1.584937        -0.073571        -2.931182
 H         3.234176         2.580904        -1.810898
 H         1.574041         2.463295        -2.203166
 H         1.578076         2.491361         1.171905
