19
Iteration:   964
 C        -0.041808        -0.037629         0.020709
 C         1.392964         0.394451         0.019010
 O         2.230127         0.188553         1.138384
 C         3.255234         0.488051         0.106166
 C         2.432234        -0.317185        -0.900602
 C         2.447678         0.427843        -2.342089
 C         2.373742         1.940285        -1.859381
 C         2.307117         1.725379        -0.365188
 O         2.058372         2.893517         0.407287
 H        -0.789034         0.523492         0.701090
 H        -0.446134         0.114874        -0.937104
 H        -0.194957        -1.159360         0.249681
 H         4.208125         0.527895         0.502853
 H         2.404980        -1.385338        -0.892938
 H         3.383109         0.224882        -2.623070
 H         1.763266        -0.080830        -3.071143
 H         3.324128         2.510972        -2.065040
 H         1.475931         2.537694        -2.220070
 H         2.136035         2.569698         1.348950
