19
Iteration:  4475
 C        -0.013588        -0.002492        -0.067866
 C         1.437529         0.354028        -0.021823
 O         2.230734         0.117308         1.237709
 C         3.212361         0.593041         0.265172
 C         2.529783        -0.296264        -0.941925
 C         2.365908         0.388146        -2.318799
 C         2.314982         1.920244        -1.913269
 C         2.270071         1.789411        -0.388828
 O         2.095635         2.870079         0.385510
 H        -0.544069         0.505266         0.692084
 H        -0.216757         0.409987        -1.103955
 H        -0.072371        -1.109877        -0.006609
 H         4.248284         0.596013         0.688775
 H         2.526833        -1.364259        -0.705991
 H         3.226631        -0.095087        -2.838971
 H         1.532972         0.015099        -2.932648
 H         3.163817         2.469305        -2.232076
 H         1.358797         2.481724        -2.302155
 H         2.037380         2.490205         1.289818
