19
Iteration:   680charge 0 multiplicity 1
 C        -0.024509         0.339183        -0.015890
 C         1.475232         0.339747         0.006385
 O         2.281040         0.071685         1.193916
 C         3.268565         0.549071         0.155662
 C         2.552001        -0.284207        -1.002668
 C         2.548094         0.452910        -2.262706
 C         2.151042         1.827872        -1.854404
 C         2.255480         1.629220        -0.388451
 O         1.917342         2.722500         0.405037
 H        -0.283445         1.235651         0.503131
 H        -0.365231         0.534329        -1.023425
 H        -0.451803        -0.587346         0.424596
 H         4.254645         0.396243         0.572080
 H         2.597604        -1.496831        -1.061151
 H         3.583479         0.507511        -2.506915
 H         2.035888        -0.131605        -3.196064
 H         2.890535         2.603597        -2.038225
 H         1.166692         2.204579        -2.140390
 H         2.567544         2.915885         1.098762
