19
Iteration:  3210
 C        -0.058090         0.032549         0.086425
 C         1.380408         0.486282        -0.073920
 O         2.200852         0.112183         1.224608
 C         3.220035         0.614037         0.100347
 C         2.533299        -0.294414        -0.960664
 C         2.567073         0.400202        -2.325358
 C         2.216234         1.788830        -1.902280
 C         2.236558         1.680417        -0.388720
 O         2.141792         2.867768         0.452874
 H        -0.665877         0.835807         0.517111
 H        -0.477795        -0.007032        -0.885167
 H        -0.204515        -0.888874         0.714539
 H         4.285564         0.838338         0.361265
 H         2.773920        -1.305769        -0.784139
 H         3.588891         0.343521        -2.783590
 H         2.048909         0.101599        -3.188531
 H         2.953291         2.437860        -2.233406
 H         1.261886         2.056742        -2.382106
 H         1.695435         2.559579         1.266506
