19
Iteration:  1462
 C         0.032356        -0.046023        -0.103191
 C         1.454090         0.444958        -0.005231
 O         2.256725         0.235364         1.164308
 C         3.195001         0.622336         0.112754
 C         2.376161        -0.323336        -0.911053
 C         2.316308         0.286798        -2.235389
 C         2.357297         1.903272        -1.841181
 C         2.266795         1.704647        -0.360996
 O         2.111675         2.881892         0.426899
 H        -0.691913         0.449737         0.539860
 H        -0.190281         0.038617        -1.114240
 H         0.049460        -1.150534         0.134501
 H         4.322890         0.709367         0.364718
 H         2.641202        -1.397451        -0.767252
 H         3.192899         0.208593        -2.865596
 H         1.383297        -0.106292        -2.803202
 H         3.400428         2.225946        -2.083499
 H         1.571626         2.538615        -2.223841
 H         2.333164         2.648996         1.361973
