19
Iteration:  3828charge 0 multiplicity 1
 C        -0.051600         0.117156         0.039214
 C         1.425031         0.348625        -0.114932
 O         2.299914         0.152360         1.234506
 C         3.214069         0.501719         0.054101
 C         2.469829        -0.362084        -1.021501
 C         2.603197         0.463829        -2.328743
 C         2.324147         1.935383        -1.783817
 C         2.154519         1.713713        -0.338508
 O         1.981094         2.813249         0.457254
 H        -0.356624         0.900165         0.781791
 H        -0.523019         0.280664        -0.893928
 H        -0.349313        -0.854029         0.541486
 H         4.262601         0.532137         0.266154
 H         2.591036        -1.484959        -1.064329
 H         3.650339         0.298341        -2.758197
 H         1.868639         0.188697        -3.098700
 H         3.224237         2.498870        -2.110220
 H         1.349199         2.347256        -2.269665
 H         2.000533         2.367881         1.339129
