19
Iteration:    42
 C        -0.007142        -0.134468        -0.071907
 C         1.385283         0.361252        -0.005238
 O         2.204149         0.264872         1.157190
 C         3.175989         0.680500         0.071182
 C         2.385891        -0.285810        -0.905141
 C         2.437554         0.353178        -2.243875
 C         2.338064         1.871241        -1.777349
 C         2.247337         1.732296        -0.354974
 O         2.182039         2.863126         0.377806
 H        -0.708745         0.436752         0.658378
 H        -0.336262         0.008355        -1.052252
 H         0.103411        -1.213778         0.190645
 H         4.260384         0.809987         0.308463
 H         2.409155        -1.344937        -0.822952
 H         3.457487         0.190868        -2.765851
 H         1.682024        -0.002765        -2.883660
 H         3.411980         2.303143        -1.983681
 H         1.622556         2.468186        -2.204817
 H         2.245901         2.511609         1.312377
