19
Iteration:   248charge 0 multiplicity 1
 C        -0.061724         0.018508         0.027861
 C         1.409744         0.341358        -0.091500
 O         2.226471         0.207684         1.141928
 C         3.228631         0.684248         0.143336
 C         2.486514        -0.389412        -0.952297
 C         2.465471         0.357446        -2.303141
 C         2.405104         1.906652        -1.819720
 C         2.154845         1.713852        -0.355527
 O         2.125032         2.838284         0.418090
 H        -0.549656         0.758147         0.747585
 H        -0.478734         0.154879        -0.959549
 H        -0.277900        -1.025706         0.405042
 H         4.228511         0.999006         0.530821
 H         2.380831        -1.413232        -0.800655
 H         3.325976         0.130940        -3.074418
 H         1.553736         0.149574        -2.784932
 H         3.418447         2.444796        -1.966397
 H         1.504835         2.267310        -2.254330
 H         2.095641         2.354821         1.275178
