19
Iteration:  1890charge 0 multiplicity 1
 C        -0.015831         0.214038         0.086855
 C         1.465554         0.375575        -0.027994
 O         2.334158         0.146859         1.155019
 C         3.231313         0.449506         0.129515
 C         2.423459        -0.296841        -1.017143
 C         2.587602         0.454372        -2.330586
 C         2.400848         1.870656        -1.827770
 C         2.168299         1.644988        -0.355337
 O         1.855889         2.781493         0.415150
 H        -0.231880         1.074752         0.809413
 H        -0.379859         0.452169        -0.932864
 H        -0.199666        -0.740354         0.519753
 H         4.209732         0.324399         0.399974
 H         2.340197        -1.396121        -0.979259
 H         3.480364         0.318762        -2.963337
 H         1.678208         0.210400        -3.005112
 H         3.231518         2.639549        -2.066697
 H         1.510020         2.333033        -2.259205
 H         2.068478         2.521882         1.332941
