19
Iteration:  1177charge 0 multiplicity 1
 C        -0.085197         0.323759         0.046193
 C         1.434616         0.368773        -0.024623
 O         2.307875         0.072692         1.206497
 C         3.298524         0.571822         0.117511
 C         2.503907        -0.300613        -0.922040
 C         2.609715         0.382846        -2.349847
 C         2.220697         1.821639        -1.893378
 C         2.242598         1.680646        -0.358830
 O         1.911361         2.764786         0.407442
 H        -0.415787         1.072732         0.749877
 H        -0.655175         0.452364        -0.961593
 H        -0.290667        -0.638703         0.540797
 H         4.449381         0.511435         0.206738
 H         2.753043        -1.373537        -0.912339
 H         3.533580         0.390020        -2.827566
 H         1.953780        -0.125581        -3.033408
 H         2.974970         2.547494        -2.244659
 H         1.243287         2.148512        -2.176441
 H         2.130926         2.568735         1.326492
