19
Iteration:  3005
 C        -0.035316         0.262497         0.137031
 C         1.503152         0.403779        -0.034853
 O         2.314790         0.102792         1.172072
 C         3.234958         0.591237         0.119908
 C         2.472392        -0.297141        -0.960678
 C         2.588974         0.319189        -2.448795
 C         2.412041         1.830467        -1.894519
 C         2.175291         1.702009        -0.329475
 O         1.777168         2.766480         0.448426
 H        -0.264370         1.119600         0.674394
 H        -0.362814         0.243060        -0.875306
 H        -0.231654        -0.725540         0.695579
 H         4.306622         0.536431         0.361146
 H         2.545631        -1.310818        -0.674590
 H         3.540870         0.267236        -2.983992
 H         1.864476        -0.060229        -3.225552
 H         3.316405         2.333011        -2.038465
 H         1.698480         2.419338        -2.481901
 H         1.775062         2.665626         1.426662
