19
Iteration:  2437
 C        -0.034766         0.290890         0.033411
 C         1.449769         0.436818        -0.035976
 O         2.182198         0.032218         1.126586
 C         3.253334         0.485490         0.132055
 C         2.589827        -0.314439        -0.982483
 C         2.644303         0.401211        -2.215171
 C         2.103635         1.815451        -1.916616
 C         2.215754         1.695597        -0.383656
 O         2.076097         2.856494         0.434233
 H        -0.375979         1.040217         0.767294
 H        -0.645656         0.298660        -0.906412
 H        -0.068583        -0.698999         0.505010
 H         4.265217         0.460375         0.517795
 H         2.717827        -1.449154        -1.073153
 H         3.681627         0.479345        -2.437489
 H         2.205180        -0.288786        -3.039843
 H         2.617879         2.745925        -2.292065
 H         1.075883         1.985000        -1.976766
 H         1.619736         2.618705         1.249180
