19
Iteration:  4359charge 0 multiplicity 1
 C        -0.081811         0.190215         0.001417
 C         1.448594         0.319681         0.006985
 O         2.295293         0.095260         1.123644
 C         3.220024         0.581545         0.093568
 C         2.546330        -0.300337        -0.906148
 C         2.556652         0.374046        -2.273916
 C         2.222772         1.890117        -1.858183
 C         2.242806         1.685154        -0.333987
 O         1.993876         2.819453         0.415406
 H        -0.616679         1.118632         0.412938
 H        -0.260520         0.065476        -1.125094
 H        -0.331385        -0.725592         0.481736
 H         4.262453         0.579085         0.484548
 H         2.592370        -1.416703        -0.701194
 H         3.436850         0.207934        -2.872990
 H         1.790176         0.160805        -3.033420
 H         2.994564         2.696302        -2.202901
 H         1.374102         2.234557        -2.304372
 H         2.153404         2.699303         1.350020
