19
Iteration:    96
 C        -0.048742         0.173221         0.010654
 C         1.439808         0.364303        -0.035390
 O         2.279011         0.056570         1.142175
 C         3.223170         0.656279         0.077411
 C         2.452383        -0.354982        -0.926551
 C         2.541054         0.347998        -2.279266
 C         2.397426         1.853661        -1.825555
 C         2.195000         1.697612        -0.308929
 O         1.952129         2.871906         0.385289
 H        -0.386921         0.988918         0.805535
 H        -0.457492         0.272333        -1.004190
 H        -0.120006        -0.838810         0.522554
 H         4.322096         0.774308         0.209719
 H         2.631734        -1.383210        -0.747039
 H         3.515677         0.103349        -2.853055
 H         1.740961         0.102980        -2.936056
 H         3.157907         2.664546        -2.188955
 H         1.501930         2.098844        -2.278022
 H         1.877536         2.645851         1.349592
