19
Iteration:   232
 C        -0.059758        -0.050993        -0.027645
 C         1.394139         0.423994        -0.069562
 O         2.191138         0.154708         1.165123
 C         3.228043         0.612934         0.170925
 C         2.474377        -0.225649        -0.904591
 C         2.374066         0.371002        -2.274406
 C         2.378850         1.852057        -1.913117
 C         2.403325         1.728900        -0.343905
 O         2.093381         2.875284         0.421232
 H        -0.719869         0.441975         0.650060
 H        -0.672797        -0.064181        -0.962885
 H         0.011036        -1.058022         0.329171
 H         4.261001         0.527913         0.495380
 H         2.778203        -1.336453        -0.799463
 H         3.205599         0.125415        -2.838671
 H         1.439949        -0.015170        -2.846406
 H         3.206675         2.356542        -2.314850
 H         1.523535         2.553913        -2.248965
 H         1.986909         2.593762         1.371728
