19
Iteration:  3479charge 0 multiplicity 1
 C        -0.161549         0.120454         0.185629
 C         1.345518         0.307577        -0.033750
 O         2.281262         0.104712         1.156399
 C         3.240684         0.593164         0.019111
 C         2.463247        -0.319400        -0.905863
 C         2.689712         0.436121        -2.326647
 C         2.415005         1.887717        -1.883830
 C         2.152366         1.660576        -0.414266
 O         1.986753         2.852024         0.379271
 H        -0.246802         0.772455         1.140661
 H        -0.765879         0.625182        -0.603883
 H        -0.489628        -0.832119         0.444526
 H         4.257053         0.821593         0.266867
 H         2.775209        -1.358970        -0.806032
 H         3.715936         0.222349        -2.582951
 H         1.953912         0.046118        -3.056306
 H         3.228871         2.694951        -2.106046
 H         1.503067         2.246380        -2.306434
 H         1.923130         2.360811         1.217257
