19
Iteration:  3076charge 0 multiplicity 1
 C        -0.015334        -0.153615        -0.099274
 C         1.351446         0.491319        -0.025681
 O         2.234587         0.164105         1.141139
 C         3.216529         0.573702         0.137576
 C         2.420713        -0.248944        -0.821471
 C         2.538458         0.378489        -2.246803
 C         2.171071         1.853728        -1.867994
 C         2.205515         1.737025        -0.348277
 O         2.221932         2.961179         0.405140
 H        -0.672636         0.243975         0.774113
 H        -0.399634         0.011953        -1.144552
 H         0.136861        -1.177157         0.014303
 H         4.292549         0.491184         0.371341
 H         2.292010        -1.361200        -0.636359
 H         3.527731         0.135309        -2.697958
 H         1.852375        -0.142923        -2.962380
 H         2.964336         2.555510        -2.270157
 H         1.232121         2.252276        -2.219582
 H         2.694451         2.563889         1.165533
