19
Iteration:   796charge 0 multiplicity 1
 C        -0.046267         0.047400         0.048698
 C         1.364980         0.396404        -0.089827
 O         2.307938         0.025381         1.136199
 C         3.153178         0.564778         0.123606
 C         2.465181        -0.231625        -0.949548
 C         2.553629         0.395823        -2.287910
 C         2.388593         1.819178        -1.915343
 C         2.179572         1.751930        -0.233642
 O         2.002186         2.914650         0.441151
 H        -0.503656         0.728219         0.764449
 H        -0.716033         0.227111        -0.935869
 H        -0.256729        -0.974535         0.313953
 H         4.279868         0.510368         0.341640
 H         2.490777        -1.354121        -1.052699
 H         3.533142         0.153448        -2.774502
 H         1.796584         0.079169        -2.928052
 H         3.317238         2.429413        -2.001453
 H         1.446374         2.290723        -2.374654
 H         2.825064         3.086810         0.930121
