19
Iteration:  2385
 C        -0.049221         0.003421         0.011933
 C         1.389252         0.414164        -0.045244
 O         2.265549         0.187903         1.146006
 C         3.212167         0.609591         0.120096
 C         2.435114        -0.342535        -0.885144
 C         2.436828         0.429427        -2.302909
 C         2.448558         1.871322        -1.870587
 C         2.213303         1.694108        -0.372062
 O         2.055723         2.830098         0.428980
 H        -0.616194         0.597958         0.684900
 H        -0.333240         0.142563        -1.072594
 H        -0.336806        -1.092666         0.252246
 H         4.292212         0.559292         0.239466
 H         2.624047        -1.427414        -0.708696
 H         3.250140         0.134701        -3.031747
 H         1.484900         0.236269        -2.800648
 H         3.397179         2.364937        -1.819372
 H         1.792597         2.656697        -2.306006
 H         2.157511         2.533902         1.358970
