19
Iteration:  1363charge 0 multiplicity 1
 C         0.012320         0.304151         0.182343
 C         1.464392         0.371608        -0.042223
 O         2.274533         0.103712         1.164490
 C         3.208949         0.545653         0.006746
 C         2.438952        -0.290076        -0.946379
 C         2.704343         0.375263        -2.264973
 C         2.216034         1.819717        -1.865880
 C         2.240630         1.678928        -0.374903
 O         1.907735         2.773967         0.377300
 H        -0.239186         1.081564         0.841542
 H        -0.466969         0.440220        -0.751174
 H        -0.264112        -0.672682         0.583621
 H         4.333160         0.528571         0.165746
 H         2.500718        -1.347934        -1.011581
 H         3.702422         0.160069        -2.493635
 H         2.175298         0.060505        -3.187311
 H         2.950835         2.598638        -2.237331
 H         1.265155         1.959310        -2.330368
 H         1.582811         2.626956         1.283388
