19
Iteration:  1502
 C        -0.116201         0.008863         0.053075
 C         1.346689         0.263808        -0.060996
 O         2.233608         0.190846         1.136742
 C         3.205151         0.599070         0.103960
 C         2.565021        -0.345110        -0.944011
 C         2.486366         0.367475        -2.286593
 C         2.275435         1.873328        -1.799899
 C         2.327800         1.778227        -0.348461
 O         2.146152         2.931959         0.378912
 H        -0.659175         0.715751         0.676464
 H        -0.631199         0.040846        -1.027324
 H        -0.241751        -1.007568         0.495320
 H         4.132585         0.603266         0.521725
 H         2.608403        -1.411894        -0.857693
 H         3.405619         0.162089        -2.870764
 H         1.738627        -0.056288        -2.947040
 H         3.127746         2.449150        -2.232728
 H         1.344672         2.398809        -2.039448
 H         1.907631         2.743329         1.292992
