19
Iteration:  2576
 C        -0.004614         0.063336        -0.020261
 C         1.395037         0.437067        -0.025853
 O         2.270422         0.087812         1.176338
 C         3.151467         0.573843         0.133982
 C         2.402642        -0.237567        -0.938128
 C         2.540073         0.351758        -2.320031
 C         2.265438         1.930757        -1.831299
 C         2.254796         1.678404        -0.290985
 O         2.190507         2.852381         0.408704
 H        -0.855478         0.592733         0.524288
 H        -0.368719        -0.069700        -1.052619
 H        -0.084129        -0.964715         0.270020
 H         4.230783         0.484735         0.381637
 H         2.562453        -1.345336        -0.760250
 H         3.573128         0.151133        -2.668737
 H         1.856771        -0.111426        -3.003580
 H         2.969037         2.673012        -2.242425
 H         1.260820         2.200810        -2.275262
 H         1.317993         2.922770         0.852018
