19
Iteration:  3054
 C        -0.076904        -0.098686         0.004608
 C         1.369797         0.323942         0.036421
 O         2.183206         0.161654         1.270551
 C         3.112292         0.613741         0.115583
 C         2.482488        -0.291981        -0.971033
 C         2.567103         0.427385        -2.350336
 C         2.222759         1.856399        -1.849330
 C         2.223768         1.695950        -0.363664
 O         2.291258         2.968963         0.362061
 H        -0.688390         0.554431         0.737420
 H        -0.302851         0.019409        -1.084332
 H        -0.104506        -1.116735         0.252959
 H         4.159747         0.844592         0.363686
 H         2.863671        -1.354701        -1.042927
 H         3.607240         0.295092        -2.755124
 H         1.930130        -0.130529        -3.074317
 H         2.911523         2.667428        -2.254123
 H         1.211393         2.206600        -2.092508
 H         1.893582         2.753210         1.234207
