19
Iteration:  4546
 C        -0.046846         0.214078         0.146221
 C         1.358446         0.397999        -0.108129
 O         2.205468         0.150182         1.153928
 C         3.241526         0.562504         0.116922
 C         2.572485        -0.343395        -1.021385
 C         2.671270         0.338335        -2.331240
 C         2.269541         1.866852        -1.826543
 C         2.280522         1.680295        -0.385158
 O         1.930625         2.797022         0.439202
 H        -0.388578         1.079963         0.812388
 H        -0.578951         0.179908        -0.758203
 H        -0.161683        -0.745092         0.644064
 H         4.293846         0.474181         0.389516
 H         2.605937        -1.430531        -0.827033
 H         3.545519         0.456004        -2.927432
 H         1.977011        -0.039895        -3.078795
 H         3.067745         2.632523        -2.228617
 H         1.319360         2.222212        -2.145299
 H         1.862142         2.557846         1.407147
