19
Iteration:  1722charge 0 multiplicity 1
 C        -0.000992         0.293999         0.152732
 C         1.388729         0.355444        -0.046433
 O         2.311228         0.029615         1.138097
 C         3.250865         0.599015         0.036566
 C         2.444172        -0.347569        -0.909422
 C         2.625590         0.436360        -2.285697
 C         2.403509         1.892965        -1.880904
 C         2.196067         1.654292        -0.397539
 O         1.850846         2.798559         0.402537
 H        -0.319847         0.944982         0.929390
 H        -0.581920         0.484898        -0.743541
 H        -0.348330        -0.684124         0.620180
 H         4.348595         0.450859         0.088840
 H         2.682922        -1.462768        -0.860707
 H         3.613192         0.106145        -2.614416
 H         1.841051         0.080658        -3.026180
 H         3.239133         2.596358        -2.197059
 H         1.444997         2.370555        -2.303317
 H         1.674911         2.388992         1.291060
