19
Iteration:  3837charge 0 multiplicity 1
 C        -0.007154         0.229841         0.028462
 C         1.460326         0.338073        -0.045134
 O         2.272014         0.146166         1.174244
 C         3.251494         0.544492         0.023472
 C         2.490065        -0.323707        -1.049649
 C         2.572693         0.394095        -2.329236
 C         2.324396         1.888158        -1.800631
 C         2.202295         1.673220        -0.329137
 O         1.934134         2.784504         0.510945
 H        -0.520278         0.900786         0.793566
 H        -0.533410         0.367443        -0.917688
 H        -0.166660        -0.792248         0.300713
 H         4.318524         0.543654         0.282706
 H         2.461537        -1.439424        -0.957804
 H         3.628083         0.177307        -2.652500
 H         1.970675         0.071809        -3.111234
 H         2.896792         2.740952        -2.003848
 H         1.292009         2.231252        -2.223984
 H         1.712575         2.520291         1.419257
