19
Iteration:   446charge 0 multiplicity 1
 C        -0.075513         0.137665         0.101403
 C         1.411599         0.459516        -0.028477
 O         2.325134         0.067300         1.105439
 C         3.235474         0.509174         0.140088
 C         2.446815        -0.311983        -0.969438
 C         2.515638         0.377262        -2.297200
 C         2.383238         1.813626        -1.800554
 C         2.240545         1.726641        -0.333855
 O         1.964238         2.895317         0.333506
 H        -0.694133         0.786975         0.770239
 H        -0.443741         0.256204        -0.872324
 H        -0.144384        -0.899114         0.398854
 H         4.296629         0.537965         0.419821
 H         2.585699        -1.363843        -0.727402
 H         3.517444         0.373530        -2.822524
 H         1.781907         0.135212        -3.022702
 H         3.224580         2.549317        -2.071124
 H         1.490387         2.351882        -2.159311
 H         1.748804         2.471109         1.184859
