19
Iteration:  3236charge 0 multiplicity 1
 C        -0.033573        -0.063136        -0.097242
 C         1.389367         0.339905         0.022238
 O         2.199410         0.250862         1.215227
 C         3.214229         0.568568         0.071944
 C         2.469945        -0.374162        -0.875038
 C         2.475511         0.397647        -2.213151
 C         2.220229         1.911977        -1.875557
 C         2.310497         1.675447        -0.421065
 O         2.156396         2.953594         0.438118
 H        -0.762303         0.407829         0.539342
 H        -0.283986         0.126185        -1.177995
 H        -0.040996        -1.171676         0.209542
 H         4.259684         0.568177         0.349536
 H         2.728582        -1.483539        -0.724594
 H         3.269946         0.342584        -2.957306
 H         1.687323         0.071799        -2.931821
 H         3.093223         2.580011        -2.229962
 H         1.186774         2.288190        -2.304291
 H         2.500104         2.677318         1.303977
