19
Iteration:  4456
 C        -0.060066         0.024496         0.005424
 C         1.437123         0.356395        -0.057071
 O         2.165781         0.177952         1.204232
 C         3.246620         0.566135         0.060204
 C         2.534999        -0.331901        -0.918415
 C         2.501691         0.464892        -2.253351
 C         2.352455         1.861984        -1.820452
 C         2.263024         1.667847        -0.293169
 O         2.042393         2.866930         0.327821
 H        -0.445763         0.630584         0.823796
 H        -0.576468         0.320660        -0.955729
 H        -0.132723        -1.000708         0.210920
 H         4.334669         0.537655         0.307081
 H         2.720378        -1.484541        -0.972505
 H         3.208978         0.343703        -3.041299
 H         1.584118        -0.005697        -2.667885
 H         3.155997         2.587980        -2.216794
 H         1.492397         2.420853        -2.111680
 H         1.903779         2.759019         1.302667
