19
Iteration:  2442
 C        -0.040522         0.290937         0.043242
 C         1.468863         0.418948        -0.062829
 O         2.164785         0.034547         1.161231
 C         3.291571         0.488926         0.150781
 C         2.571757        -0.340045        -0.972358
 C         2.659553         0.415521        -2.268006
 C         2.108710         1.823745        -1.942450
 C         2.218023         1.664165        -0.371635
 O         2.065581         2.874248         0.457902
 H        -0.350547         1.110226         0.719103
 H        -0.677401         0.427126        -0.809192
 H        -0.098505        -0.689739         0.585117
 H         4.364992         0.422654         0.468096
 H         2.720774        -1.360417        -1.128004
 H         3.785660         0.361368        -2.574589
 H         2.166167        -0.108981        -3.006876
 H         2.564639         2.714929        -2.305906
 H         0.941777         1.885757        -2.126692
 H         1.450421         2.691335         1.220085
