19
Iteration:   532
 C        -0.047773         0.146974        -0.018766
 C         1.454693         0.389349        -0.040719
 O         2.294479         0.166361         1.192168
 C         3.241981         0.527236         0.168930
 C         2.463270        -0.264896        -0.976588
 C         2.499943         0.422589        -2.247244
 C         2.254677         1.848567        -1.875147
 C         2.256836         1.676786        -0.360687
 O         2.040008         2.775595         0.412490
 H        -0.632213         0.914896         0.568003
 H        -0.365770         0.230224        -1.032111
 H        -0.313767        -0.894401         0.270138
 H         4.320470         0.523370         0.433884
 H         2.518545        -1.256110        -1.019745
 H         3.486710         0.169580        -2.858188
 H         1.773462         0.004169        -2.869281
 H         2.950466         2.691192        -2.225419
 H         1.233378         2.188170        -2.235931
 H         2.082940         2.542599         1.369291
