19
Iteration:  1967
 C        -0.112963         0.079173        -0.010204
 C         1.400942         0.376022        -0.038153
 O         2.285272         0.142160         1.193802
 C         3.257300         0.531948         0.118521
 C         2.380215        -0.290957        -0.952137
 C         2.538692         0.485865        -2.270112
 C         2.257700         1.907756        -1.792890
 C         2.317087         1.662008        -0.335262
 O         2.079779         2.797844         0.362192
 H        -0.622358         0.745434         0.687838
 H        -0.335266         0.274403        -1.070335
 H        -0.142929        -0.975021         0.050177
 H         4.297098         0.497889         0.218697
 H         2.504947        -1.430698        -0.921986
 H         3.544824         0.220396        -2.624307
 H         1.808289         0.252246        -3.085615
 H         3.002558         2.712791        -2.146936
 H         1.237591         2.158615        -2.073190
 H         2.283052         2.626524         1.304798
