19
Iteration:  1963charge 0 multiplicity 1
 C        -0.108237         0.118191        -0.020453
 C         1.411883         0.361814        -0.038929
 O         2.281432         0.139200         1.193336
 C         3.240571         0.509891         0.071317
 C         2.415084        -0.303007        -0.894604
 C         2.546853         0.499542        -2.296366
 C         2.261988         1.877160        -1.790281
 C         2.327460         1.692642        -0.333941
 O         2.050887         2.800576         0.385437
 H        -0.694191         0.712968         0.684315
 H        -0.405679         0.312876        -1.020107
 H        -0.168447        -0.980698         0.092078
 H         4.364416         0.485004         0.221443
 H         2.463428        -1.362692        -1.012535
 H         3.531061         0.294873        -2.642371
 H         1.826929         0.162672        -3.059025
 H         2.897155         2.627677        -2.218106
 H         1.244660         2.174434        -2.090203
 H         2.363245         2.606426         1.296396
