19
Iteration:  4577charge 0 multiplicity 1
 C        -0.098027         0.285666         0.185297
 C         1.315904         0.276321        -0.101800
 O         2.377297         0.025634         1.235658
 C         3.135091         0.586343         0.144181
 C         2.483667        -0.319057        -1.030812
 C         2.719660         0.401991        -2.332861
 C         2.337529         1.905021        -1.872080
 C         2.188111         1.649563        -0.372317
 O         1.913704         2.819865         0.356945
 H        -0.252915         1.262888         0.663175
 H        -0.582648         0.140715        -0.755567
 H        -0.099386        -0.467005         0.869330
 H         4.239614         0.626959         0.173516
 H         2.575565        -1.441787        -0.907641
 H         3.694066         0.471912        -2.654958
 H         2.048969         0.203956        -3.148618
 H         3.213749         2.642546        -2.129421
 H         1.551866         2.327259        -2.383573
 H         1.852398         2.409711         1.225274
