19
Iteration:  2524charge 0 multiplicity 1
 C        -0.001217        -0.031992        -0.001206
 C         1.453512         0.401264        -0.055347
 O         2.136891         0.151251         1.186868
 C         3.274862         0.660029         0.177692
 C         2.464946        -0.291268        -0.902060
 C         2.375589         0.453753        -2.376712
 C         2.509570         1.867317        -1.841232
 C         2.292037         1.654907        -0.363367
 O         1.984394         2.820814         0.389230
 H        -0.458455         0.534869         0.858901
 H        -0.741392         0.177197        -0.790289
 H        -0.191747        -1.023515         0.353928
 H         4.286678         0.685197         0.537642
 H         2.288183        -1.398085        -0.786675
 H         3.079702         0.304528        -3.138526
 H         1.309331         0.205071        -2.797705
 H         3.596048         2.166843        -2.143127
 H         1.760860         2.581218        -2.251556
 H         2.581791         2.790850         1.154499
