19
Iteration:  3392
 C        -0.060842         0.061268        -0.048116
 C         1.397820         0.278440         0.000267
 O         2.264981         0.215910         1.244716
 C         3.246439         0.542170         0.107476
 C         2.496736        -0.381508        -0.935534
 C         2.489904         0.387635        -2.264760
 C         2.234943         1.923557        -1.827288
 C         2.257035         1.681068        -0.331046
 O         2.105485         2.890002         0.348736
 H        -0.649767         0.982727         0.243511
 H        -0.322790        -0.003309        -1.118556
 H        -0.440611        -0.830508         0.326293
 H         4.211244         0.775291         0.505325
 H         2.753739        -1.394339        -1.143591
 H         3.389139         0.292822        -2.854114
 H         1.689482        -0.045079        -2.884674
 H         3.121563         2.628386        -2.150620
 H         1.399024         2.406489        -2.276986
 H         2.066020         2.725046         1.321573
