19
Iteration:   180charge 0 multiplicity 1
 C        -0.124771         0.081798         0.037217
 C         1.381493         0.329092        -0.038377
 O         2.296629         0.085406         1.234748
 C         3.144580         0.599065         0.115562
 C         2.504407        -0.288257        -0.937583
 C         2.583544         0.358889        -2.299129
 C         2.339592         1.892796        -1.899890
 C         2.276408         1.733308        -0.352367
 O         2.053177         2.879753         0.392887
 H        -0.706955         0.798049         0.567552
 H        -0.587744         0.287167        -1.008325
 H        -0.572128        -0.833318         0.348197
 H         4.249476         0.691776         0.148360
 H         2.758790        -1.349552        -0.855881
 H         3.541557         0.230074        -2.874462
 H         1.705967         0.072981        -2.895870
 H         3.179657         2.503337        -2.288073
 H         1.268857         2.227682        -2.151106
 H         2.192522         2.592777         1.335621
