19
Iteration:  4533
 C        -0.063611         0.159049         0.034272
 C         1.474063         0.361870        -0.139266
 O         2.279880         0.206687         1.247345
 C         3.168975         0.532104         0.154516
 C         2.497893        -0.330054        -0.955236
 C         2.568062         0.443657        -2.351690
 C         2.306556         1.830539        -1.888602
 C         2.221624         1.680734        -0.327272
 O         1.997468         2.792424         0.420563
 H        -0.435330         0.864587         0.792752
 H        -0.670051         0.283770        -0.880472
 H        -0.152547        -0.785306         0.443339
 H         4.243897         0.660331         0.428699
 H         2.742082        -1.444252        -1.023111
 H         3.538344         0.190310        -2.614939
 H         1.816152         0.092326        -3.044640
 H         2.984728         2.692026        -2.249591
 H         1.361013         2.152118        -2.260056
 H         1.937894         2.319226         1.271008
