19
Iteration:   783charge 0 multiplicity 1
 C        -0.111550        -0.011055         0.081373
 C         1.358976         0.390743         0.033514
 O         2.254673         0.027841         1.196637
 C         3.152228         0.585112         0.103227
 C         2.447866        -0.277962        -0.955024
 C         2.528311         0.454711        -2.308418
 C         2.467681         1.953187        -1.828077
 C         2.185992         1.681455        -0.423888
 O         2.044555         2.868440         0.369137
 H        -0.737193         0.478036         0.847088
 H        -0.460555         0.136787        -0.969754
 H        -0.030243        -1.058206         0.294629
 H         4.250555         0.815612         0.267270
 H         2.622500        -1.278580        -0.756713
 H         3.431526         0.166387        -2.968540
 H         1.663846         0.211842        -2.825578
 H         3.412452         2.479756        -1.994789
 H         1.729778         2.531830        -2.401870
 H         2.852811         3.002691         0.895387
