19
Iteration:  2378charge 0 multiplicity 1
 C        -0.012301         0.007234        -0.012826
 C         1.408135         0.410202        -0.062778
 O         2.221546         0.164540         1.117067
 C         3.257575         0.645032         0.102341
 C         2.409849        -0.288550        -0.877101
 C         2.382922         0.388223        -2.297638
 C         2.527315         1.865800        -1.832670
 C         2.236735         1.703133        -0.329501
 O         2.054169         2.824524         0.414098
 H        -0.617377         0.500215         0.790937
 H        -0.575810         0.042908        -0.926210
 H        -0.099654        -1.018590         0.346115
 H         4.322294         0.722413         0.437837
 H         2.512640        -1.326219        -0.791860
 H         3.078070        -0.013430        -3.073462
 H         1.391885         0.303397        -2.718699
 H         3.440142         2.504645        -1.906529
 H         1.686512         2.484571        -2.334418
 H         1.816449         2.351062         1.266302
