19
Iteration:   836
 C        -0.036905         0.360673        -0.025627
 C         1.461499         0.328656        -0.055076
 O         2.286275         0.142612         1.202913
 C         3.283182         0.500001         0.153168
 C         2.580997        -0.280133        -0.969649
 C         2.581193         0.457157        -2.281017
 C         2.164877         1.856790        -1.830069
 C         2.159505         1.600288        -0.349969
 O         1.978223         2.694604         0.395597
 H        -0.243229         1.152345         0.730604
 H        -0.458485         0.657686        -0.935512
 H        -0.511988        -0.545231         0.320147
 H         4.349648         0.479118         0.392291
 H         2.688560        -1.298438        -0.862532
 H         3.617930         0.421918        -2.804906
 H         1.914133        -0.050012        -3.025967
 H         2.756883         2.604514        -2.315100
 H         1.216453         2.016990        -2.267079
 H         1.992549         2.421914         1.361805
