19
Iteration:  1431
 C        -0.081115         0.102224         0.042839
 C         1.416689         0.392363         0.000943
 O         2.323836         0.166698         1.212147
 C         3.226175         0.553154         0.174029
 C         2.468816        -0.293607        -0.981594
 C         2.481939         0.382128        -2.277812
 C         2.324419         1.869080        -1.920476
 C         2.246779         1.685180        -0.408940
 O         2.027628         2.832581         0.391379
 H        -0.560872         0.816449         0.741748
 H        -0.485242         0.301966        -0.877427
 H        -0.267531        -0.924186         0.393293
 H         4.405918         0.577908         0.337848
 H         2.689866        -1.375495        -0.873123
 H         3.320092         0.255228        -2.950367
 H         1.725326        -0.134867        -2.828469
 H         3.233354         2.389360        -2.200713
 H         1.467380         2.428311        -2.347249
 H         1.732200         2.537386         1.270786
