19
Iteration:  2742
 C        -0.038895        -0.063431        -0.016991
 C         1.337072         0.329916         0.031753
 O         2.203088         0.239142         1.191786
 C         3.239166         0.510406         0.064999
 C         2.389971        -0.306990        -0.915084
 C         2.615974         0.411007        -2.281649
 C         2.272933         1.946923        -1.884449
 C         2.222963         1.727365        -0.377045
 O         2.189621         2.883966         0.421770
 H        -0.769224         0.575761         0.559092
 H        -0.412963        -0.098794        -1.060626
 H        -0.222121        -1.090823         0.232696
 H         4.291530         0.683496         0.228760
 H         2.310645        -1.391948        -0.725690
 H         3.562035         0.174355        -2.752886
 H         1.793493         0.112007        -2.986477
 H         2.894104         2.777955        -2.119434
 H         1.214012         2.191251        -2.100688
 H         2.474770         2.585775         1.321193
