19
Iteration:  4316
 C        -0.038023        -0.049988        -0.029498
 C         1.411253         0.388767         0.039953
 O         2.261108         0.201851         1.160532
 C         3.191913         0.577367         0.121743
 C         2.495106        -0.340633        -0.919547
 C         2.406247         0.448163        -2.252187
 C         2.381725         1.905530        -1.826680
 C         2.238473         1.716093        -0.381234
 O         2.099073         2.848468         0.402801
 H        -0.899152         0.582927         0.419461
 H        -0.222745         0.232670        -1.093792
 H        -0.373049        -1.046348         0.012570
 H         4.267059         0.661514         0.359522
 H         2.737745        -1.450999        -0.913290
 H         3.184524         0.260685        -2.972428
 H         1.542400         0.019813        -2.778847
 H         3.283604         2.471596        -2.253255
 H         1.596548         2.451177        -2.227846
 H         1.969531         2.417712         1.279880
