19
Iteration:  1004
 C        -0.085815         0.350491         0.036259
 C         1.465073         0.332150        -0.015134
 O         2.278423         0.118735         1.099183
 C         3.254887         0.638923         0.115267
 C         2.620341        -0.361642        -0.977529
 C         2.556557         0.323685        -2.314082
 C         2.211412         1.817379        -1.870108
 C         2.167238         1.654971        -0.363088
 O         1.966997         2.746888         0.515533
 H        -0.292695         1.186136         0.658341
 H        -0.410576         0.597515        -0.992842
 H        -0.530154        -0.575874         0.378426
 H         4.323295         0.844662         0.392148
 H         2.908880        -1.427772        -0.796885
 H         3.695216         0.452414        -2.724047
 H         1.975726         0.048774        -3.167781
 H         2.983423         2.446381        -2.276988
 H         1.231443         2.276428        -2.166248
 H         1.796207         2.365243         1.391978
