19
Iteration:  4090charge 0 multiplicity 1
 C        -0.050189         0.054798         0.121360
 C         1.355569         0.327104        -0.093717
 O         2.260935         0.129199         1.179863
 C         3.161194         0.551721         0.089164
 C         2.411809        -0.292981        -1.034487
 C         2.570127         0.450088        -2.340332
 C         2.420391         1.894076        -1.760102
 C         2.268668         1.639131        -0.328610
 O         2.037477         2.892795         0.376203
 H        -0.511183         0.485316         1.036471
 H        -0.597787         0.407784        -0.738968
 H        -0.202581        -1.125338         0.268436
 H         4.204908         0.731400         0.233380
 H         2.445770        -1.386419        -0.889802
 H         3.645275         0.424243        -2.725680
 H         2.009726         0.332450        -3.243637
 H         3.147826         2.575298        -2.058411
 H         1.409365         2.357821        -2.018966
 H         1.909395         2.502390         1.267448
