19
Iteration:  1328charge 0 multiplicity 1
 C        -0.123789         0.070035         0.036644
 C         1.415789         0.337418         0.004253
 O         2.243368         0.149072         1.256806
 C         3.260955         0.628379         0.093668
 C         2.540988        -0.240684        -0.921335
 C         2.447406         0.397214        -2.301165
 C         2.338532         1.886223        -1.933822
 C         2.252857         1.664222        -0.382157
 O         2.070264         2.786712         0.361828
 H        -0.669376         0.734377         0.635952
 H        -0.500468         0.211843        -1.028503
 H        -0.354455        -0.917605         0.311437
 H         4.251402         0.688365         0.423621
 H         2.693842        -1.321111        -0.745630
 H         3.316616         0.215570        -2.915152
 H         1.463980        -0.018781        -2.722210
 H         3.176816         2.621158        -2.157774
 H         1.444997         2.431658        -2.215690
 H         2.453340         2.611441         1.232535
