19
Iteration:  4446charge 0 multiplicity 1
 C        -0.072868         0.044603         0.050467
 C         1.386539         0.345146        -0.116919
 O         2.250369         0.195507         1.186029
 C         3.244426         0.548463         0.110713
 C         2.563691        -0.321962        -0.998951
 C         2.538417         0.395231        -2.303181
 C         2.337025         1.899322        -1.739250
 C         2.200979         1.680142        -0.337073
 O         2.022694         2.865987         0.339808
 H        -0.410209         0.739138         0.869642
 H        -0.617409         0.336030        -0.895676
 H        -0.334979        -0.939298         0.338210
 H         4.327288         0.650921         0.370365
 H         2.410114        -1.437219        -0.758938
 H         3.436437         0.096152        -2.800095
 H         1.622675         0.195631        -2.936411
 H         3.333956         2.505827        -1.880751
 H         1.459340         2.248090        -2.163778
 H         1.913261         2.675800         1.318231
