19
Iteration:  1132charge 0 multiplicity 1
 C        -0.102809        -0.104773        -0.026043
 C         1.358882         0.369602        -0.033562
 O         2.248059         0.258315         1.304684
 C         3.180133         0.561468         0.094973
 C         2.563765        -0.246876        -0.971134
 C         2.355087         0.465526        -2.301908
 C         2.368693         1.892308        -1.826269
 C         2.294364         1.666808        -0.357672
 O         2.160041         2.836601         0.347101
 H        -0.719601         0.488951         0.628890
 H        -0.417408         0.148926        -1.154396
 H        -0.139142        -1.136382         0.223978
 H         4.278636         0.623534         0.438847
 H         2.640703        -1.399413        -0.853178
 H         3.157184         0.203739        -2.854358
 H         1.498454         0.035400        -2.867776
 H         3.386449         2.314516        -2.099859
 H         1.550698         2.436786        -2.217247
 H         1.907038         2.668180         1.258412
