19
Iteration:  2993
 C        -0.021915         0.323713         0.108547
 C         1.423531         0.310122        -0.045433
 O         2.399652         0.148111         1.143495
 C         3.302033         0.582585         0.099612
 C         2.484835        -0.374437        -0.988098
 C         2.525831         0.360856        -2.292556
 C         2.484944         1.866275        -1.962179
 C         2.153906         1.677609        -0.337765
 O         1.723268         2.769317         0.477942
 H        -0.359504         1.191748         0.642977
 H        -0.615157         0.400854        -0.782730
 H        -0.470475        -0.506594         0.681757
 H         4.354655         0.775699         0.403550
 H         2.686791        -1.412684        -1.044157
 H         3.542434         0.077914        -2.582375
 H         1.809043         0.003513        -3.027948
 H         3.433599         2.289847        -2.110101
 H         1.701434         2.413502        -2.552950
 H         1.594475         2.267819         1.312389
