19
Iteration:  2736charge 0 multiplicity 1
 C        -0.036353        -0.070641        -0.014260
 C         1.337307         0.416625        -0.000928
 O         2.208069         0.200659         1.186310
 C         3.168017         0.526019         0.061661
 C         2.457660        -0.319051        -0.887756
 C         2.544168         0.484694        -2.228894
 C         2.299852         1.917488        -1.896496
 C         2.197182         1.684145        -0.384316
 O         2.201854         2.873173         0.419510
 H        -0.716849         0.463754         0.584754
 H        -0.322433        -0.018437        -1.072000
 H        -0.056416        -1.213742         0.244301
 H         4.261486         0.736203         0.196015
 H         2.310104        -1.397766        -0.804668
 H         3.514412         0.122459        -2.665698
 H         1.834796        -0.005086        -2.902633
 H         3.068842         2.716350        -2.352108
 H         1.277914         2.202767        -2.170340
 H         2.541396         2.692776         1.333715
