19
Iteration:  2876
 C        -0.090100        -0.049631         0.045104
 C         1.388009         0.431348        -0.063132
 O         2.162486         0.171221         1.151313
 C         3.181921         0.587724         0.106590
 C         2.553468        -0.261215        -0.923120
 C         2.518437         0.387037        -2.232559
 C         2.267321         1.861792        -1.925312
 C         2.304752         1.712840        -0.310043
 O         2.139954         2.860683         0.381317
 H        -0.500961         0.511806         0.856390
 H        -0.623163         0.184802        -0.889552
 H        -0.127953        -1.228457         0.175813
 H         4.158091         0.637396         0.534135
 H         2.697032        -1.322814        -0.833605
 H         3.426913         0.351292        -2.810382
 H         1.681335         0.022391        -2.928934
 H         3.197475         2.433100        -2.272783
 H         1.363959         2.364732        -2.173268
 H         2.288018         2.645746         1.317156
