19
Iteration:   780
 C        -0.123306        -0.026645         0.077458
 C         1.367387         0.372084         0.055108
 O         2.235011         0.056473         1.189927
 C         3.177941         0.592640         0.112320
 C         2.455182        -0.324899        -0.939386
 C         2.512645         0.459095        -2.342885
 C         2.486215         2.002626        -1.825655
 C         2.174957         1.704176        -0.416607
 O         2.056363         2.848177         0.343945
 H        -0.751503         0.466016         0.849226
 H        -0.436877         0.109048        -0.865022
 H        -0.015168        -1.119465         0.292933
 H         4.206446         0.807532         0.294868
 H         2.605714        -1.376346        -0.722629
 H         3.421270         0.159106        -2.926587
 H         1.542379         0.257689        -2.958510
 H         3.472808         2.433329        -1.927502
 H         1.732248         2.597623        -2.266509
 H         2.826426         2.984377         0.912987
