19
Iteration:  4514
 C        -0.073013         0.045109        -0.054669
 C         1.450739         0.354743         0.035252
 O         2.277013         0.211967         1.199526
 C         3.235750         0.624464         0.064273
 C         2.479426        -0.341408        -0.880836
 C         2.520922         0.357076        -2.254595
 C         2.294228         1.956231        -1.878072
 C         2.189532         1.695382        -0.384337
 O         2.071208         2.777796         0.413947
 H        -0.814643         0.700220         0.532887
 H        -0.282184         0.392596        -1.032301
 H        -0.573791        -0.938497        -0.001417
 H         4.262723         0.535374         0.374176
 H         2.599633        -1.420339        -0.881869
 H         3.447440         0.406855        -2.837312
 H         1.720699        -0.090913        -2.861894
 H         3.292045         2.504996        -2.103829
 H         1.403684         2.424515        -2.227284
 H         2.090952         2.495498         1.332471
