19
Iteration:  4023
 C        -0.091132         0.273986        -0.044415
 C         1.467741         0.307974        -0.033272
 O         2.283570         0.104486         1.179656
 C         3.309641         0.506229         0.088916
 C         2.635774        -0.342382        -0.918140
 C         2.527182         0.460840        -2.337142
 C         2.231452         1.902605        -1.796337
 C         2.229248         1.661599        -0.340050
 O         1.968848         2.764224         0.452947
 H        -0.493423         1.205532         0.562492
 H        -0.460199         0.595273        -1.033737
 H        -0.645117        -0.674845         0.326154
 H         4.395321         0.466928         0.194177
 H         2.740668        -1.479682        -0.949718
 H         3.443884         0.427975        -3.027247
 H         1.709933         0.017444        -2.851812
 H         2.874331         2.605682        -2.190955
 H         1.184159         2.429082        -1.868778
 H         1.387644         2.394030         1.156559
