19
Iteration:  2564charge 0 multiplicity 1
 C        -0.105486        -0.102322        -0.066681
 C         1.371088         0.363558         0.020840
 O         2.258075         0.114001         1.201049
 C         3.199029         0.601104         0.126610
 C         2.434910        -0.254875        -0.903985
 C         2.447756         0.365541        -2.385479
 C         2.356176         1.868236        -1.825116
 C         2.260094         1.743669        -0.332646
 O         2.206398         2.920681         0.402960
 H        -0.579316         0.751673         0.572697
 H        -0.355641         0.209119        -1.080146
 H        -0.376478        -1.072746         0.312217
 H         4.303889         0.786436         0.326592
 H         2.579007        -1.339594        -0.645911
 H         3.491659         0.164568        -2.810444
 H         1.760982         0.145574        -3.141254
 H         3.209778         2.506394        -1.938318
 H         1.440619         2.511349        -1.982139
 H         1.423694         2.905799         0.991090
