19
Iteration:  3766charge 0 multiplicity 1
 C        -0.045224        -0.122697        -0.012921
 C         1.379085         0.430491        -0.048417
 O         2.211543         0.100836         1.187237
 C         3.242933         0.523759         0.159174
 C         2.406927        -0.275138        -0.992162
 C         2.436055         0.405772        -2.269872
 C         2.434954         2.022324        -1.848467
 C         2.213883         1.752971        -0.365886
 O         2.163188         2.881991         0.434048
 H        -0.727099         0.482586         0.526536
 H        -0.521094        -0.328390        -0.981713
 H         0.021095        -1.136879         0.559107
 H         4.292747         0.507675         0.531620
 H         2.622703        -1.325251        -1.051739
 H         3.246144         0.166884        -2.927651
 H         1.494301         0.224196        -2.920926
 H         3.351871         2.594660        -2.193686
 H         1.708661         2.626711        -2.256227
 H         1.581615         2.761456         1.188961
