19
Iteration:  3145
 C        -0.006883         0.269770         0.170266
 C         1.455348         0.296042        -0.074585
 O         2.318524         0.090543         1.110611
 C         3.283956         0.555370         0.110538
 C         2.502302        -0.326549        -0.940695
 C         2.572356         0.316673        -2.317812
 C         2.449755         1.856039        -1.917511
 C         2.223840         1.726587        -0.377572
 O         1.717128         2.849084         0.443076
 H        -0.207458         1.088873         0.855692
 H        -0.575137         0.438069        -0.738708
 H        -0.541981        -0.643339         0.634433
 H         4.368045         0.632971         0.377901
 H         2.703215        -1.355452        -0.844502
 H         3.449351         0.213369        -2.987302
 H         1.756369         0.118303        -2.957274
 H         3.228504         2.576042        -2.036665
 H         1.458138         2.310657        -2.421742
 H         1.904081         2.398836         1.293897
