19
Iteration:  3338charge 0 multiplicity 1
 C        -0.116917         0.290412         0.257922
 C         1.347188         0.278691        -0.067364
 O         2.292385         0.162165         1.135470
 C         3.216237         0.581653         0.008891
 C         2.509889        -0.361439        -0.935698
 C         2.764016         0.415668        -2.349088
 C         2.312480         1.828176        -1.907004
 C         2.141375         1.691059        -0.392417
 O         1.929413         2.750106         0.428442
 H        -0.246718         1.247787         0.909766
 H        -0.580131         0.365396        -0.748561
 H        -0.558502        -0.507484         0.792061
 H         4.236639         0.431684         0.340678
 H         2.877405        -1.356654        -0.815830
 H         3.799270         0.523253        -2.531157
 H         2.150214         0.113275        -3.187230
 H         3.235825         2.555892        -2.161585
 H         1.478328         2.045541        -2.505110
 H         1.847187         2.432927         1.365917
