19
Iteration:  2291
 C        -0.061192         0.259776         0.095245
 C         1.376668         0.364153         0.013241
 O         2.219751         0.113615         1.169144
 C         3.215719         0.521730         0.063272
 C         2.513076        -0.303490        -0.977589
 C         2.721057         0.415121        -2.338569
 C         2.183923         1.827310        -1.903083
 C         2.269464         1.681984        -0.395634
 O         2.027459         2.796958         0.504402
 H        -0.470490         1.048711         0.804466
 H        -0.304226         0.386521        -0.942621
 H        -0.369897        -0.737328         0.370811
 H         4.266266         0.760890         0.313894
 H         2.599685        -1.316441        -1.162453
 H         3.768924         0.414361        -2.697092
 H         2.074580        -0.147075        -3.055962
 H         2.660176         2.706933        -2.354290
 H         1.133249         1.827572        -2.281039
 H         1.948241         2.429641         1.418377
