19
Iteration:  3811charge 0 multiplicity 1
 C        -0.143688        -0.001221         0.113782
 C         1.315294         0.281648        -0.056844
 O         2.270506         0.127605         1.162649
 C         3.158776         0.548482         0.137361
 C         2.508791        -0.258286        -0.961405
 C         2.551188         0.553328        -2.314413
 C         2.418106         1.998899        -1.879809
 C         2.224669         1.660117        -0.408790
 O         2.085781         2.776755         0.402059
 H        -0.762512         0.652945         0.711499
 H        -0.642338        -0.115941        -0.903155
 H        -0.166283        -1.009313         0.629252
 H         4.256096         0.610719         0.395787
 H         2.552840        -1.321237        -0.884528
 H         3.493612         0.296709        -2.781117
 H         1.782483         0.088937        -3.010490
 H         3.247560         2.755749        -1.866423
 H         1.685811         2.568498        -2.341739
 H         2.339226         2.750099         1.322785
