19
Iteration:  2598
 C        -0.052286         0.129578         0.061193
 C         1.469816         0.376998        -0.075382
 O         2.200617         0.150712         1.157761
 C         3.253991         0.396429         0.086933
 C         2.546071        -0.351442        -0.932406
 C         2.626440         0.428808        -2.312071
 C         2.160665         1.862852        -1.870579
 C         2.219171         1.732262        -0.371803
 O         2.116492         2.878231         0.489659
 H        -0.447576         1.088301         0.591461
 H        -0.683725         0.233055        -0.830280
 H        -0.614548        -0.650944         0.484483
 H         4.278330         0.558860         0.465693
 H         2.570737        -1.492876        -0.863274
 H         3.699877         0.498092        -2.617988
 H         2.090692         0.015810        -3.140540
 H         2.835177         2.640506        -2.302098
 H         1.122841         2.092695        -2.280990
 H         1.283781         2.788493         0.976739
