19
Iteration:   754
 C        -0.054798        -0.118175         0.083984
 C         1.370006         0.284628        -0.118309
 O         2.192800         0.264928         1.223282
 C         3.151020         0.507962         0.156686
 C         2.450123        -0.268346        -1.050512
 C         2.443942         0.476035        -2.293223
 C         2.506578         1.881602        -1.810354
 C         2.264410         1.756650        -0.371204
 O         2.101231         2.899378         0.388531
 H        -0.391599         0.502694         0.899997
 H        -0.684519         0.073184        -0.913222
 H        -0.010895        -1.166760         0.396395
 H         4.253548         0.576889         0.287418
 H         2.667197        -1.417496        -1.023927
 H         3.209068         0.193389        -2.979407
 H         1.388587         0.272530        -2.705167
 H         3.572909         2.173850        -2.040909
 H         1.673569         2.482862        -2.318511
 H         1.927322         2.589096         1.312488
