19
Iteration:  1972
 C        -0.072298         0.045454        -0.014425
 C         1.386071         0.396433        -0.021913
 O         2.293714         0.143157         1.193052
 C         3.234585         0.550411         0.165002
 C         2.358694        -0.300693        -1.031064
 C         2.520094         0.448069        -2.250145
 C         2.276930         1.956949        -1.814255
 C         2.274240         1.625330        -0.331744
 O         2.127092         2.814937         0.349012
 H        -0.611086         0.695847         0.701754
 H        -0.395254         0.284654        -1.117804
 H        -0.254374        -1.114189         0.168268
 H         4.397823         0.514569         0.338326
 H         2.524559        -1.320625        -0.824779
 H         3.573278         0.236886        -2.666064
 H         1.845005         0.272530        -3.069020
 H         2.995554         2.687897        -2.003726
 H         1.227064         2.255208        -2.069237
 H         2.113012         2.638507         1.320710
