19
Iteration:   442
 C        -0.125471         0.114555         0.102847
 C         1.418824         0.458086        -0.042314
 O         2.356540         0.041129         1.110791
 C         3.230458         0.544914         0.188638
 C         2.436788        -0.306235        -0.931733
 C         2.501741         0.357889        -2.326989
 C         2.385955         1.859052        -1.793034
 C         2.238164         1.723760        -0.362089
 O         1.988200         2.901919         0.336216
 H        -0.757721         0.742857         0.708960
 H        -0.513257         0.268035        -0.938298
 H        -0.103570        -0.975314         0.389616
 H         4.298227         0.616043         0.464903
 H         2.575178        -1.359300        -0.851618
 H         3.509655         0.291278        -2.855104
 H         1.763202         0.044070        -3.086549
 H         3.256709         2.438158        -2.133329
 H         1.525892         2.488671        -2.211324
 H         1.780040         2.477305         1.204847
