19
Iteration:  4263
 C        -0.098457         0.073033         0.120479
 C         1.429679         0.384643        -0.011069
 O         2.238459         0.059262         1.138571
 C         3.244198         0.612742         0.017414
 C         2.438704        -0.265790        -0.950506
 C         2.571550         0.396592        -2.275556
 C         2.390966         1.921355        -1.881544
 C         2.191640         1.713576        -0.337360
 O         2.004004         2.835533         0.424970
 H        -0.553983         0.787734         0.942560
 H        -0.703332         0.351639        -0.736768
 H        -0.148373        -1.000688         0.290072
 H         4.335494         0.585400         0.102102
 H         2.709304        -1.351337        -0.860435
 H         3.622017         0.153825        -2.641586
 H         1.913786        -0.078753        -3.010630
 H         3.338678         2.449407        -2.169030
 H         1.611212         2.334337        -2.618215
 H         1.858055         2.563677         1.372958
