19
Iteration:  1767
 C        -0.040425         0.311046         0.003326
 C         1.461360         0.261148        -0.041759
 O         2.275973         0.101019         1.188077
 C         3.224720         0.576451         0.086338
 C         2.602917        -0.358684        -0.966889
 C         2.500929         0.384935        -2.229079
 C         2.285026         1.903674        -1.856496
 C         2.245472         1.715051        -0.364819
 O         1.941862         2.742517         0.387763
 H        -0.382494         0.938401         0.861546
 H        -0.459191         0.617261        -0.918280
 H        -0.503478        -0.678122         0.291336
 H         4.224243         0.826134         0.367954
 H         2.846971        -1.426270        -0.864926
 H         3.352537         0.285392        -2.848325
 H         1.575115         0.120143        -2.854981
 H         3.075505         2.656386        -2.126184
 H         1.301687         2.359923        -2.149533
 H         2.011650         2.416456         1.327728
