19
Iteration:   156charge 0 multiplicity 1
 C         0.018451         0.267941         0.132861
 C         1.464896         0.393920        -0.107763
 O         2.181590         0.151233         1.092220
 C         3.239079         0.545354         0.152736
 C         2.584352        -0.310283        -0.963194
 C         2.619354         0.332302        -2.307668
 C         2.267727         1.824272        -1.933797
 C         2.122360         1.673221        -0.374765
 O         1.978365         2.799040         0.491127
 H        -0.294362         0.972972         0.799606
 H        -0.652486         0.439499        -0.725565
 H        -0.275111        -0.644998         0.556183
 H         4.270998         0.587313         0.514696
 H         2.574129        -1.447869        -0.890205
 H         3.617986         0.375650        -2.615340
 H         1.985624        -0.130301        -3.125452
 H         3.119545         2.347517        -2.175616
 H         1.306200         2.259948        -2.374635
 H         1.877173         2.458805         1.387343
