19
Iteration:  3742
 C        -0.038880         0.083225        -0.079653
 C         1.430305         0.278450        -0.030742
 O         2.276094         0.197727         1.206847
 C         3.224043         0.565904         0.127117
 C         2.490249        -0.317570        -0.969645
 C         2.425752         0.442558        -2.333425
 C         2.362130         1.930298        -1.740694
 C         2.207102         1.672977        -0.315030
 O         2.047979         2.810617         0.407998
 H        -0.671227         0.750760         0.535886
 H        -0.380084         0.138209        -1.088692
 H        -0.260906        -1.019663         0.184002
 H         4.256643         0.475034         0.411445
 H         2.719488        -1.406400        -0.922946
 H         3.322691         0.319026        -2.990102
 H         1.540657         0.236899        -3.023902
 H         3.182070         2.504148        -2.219724
 H         1.556767         2.537076        -2.097899
 H         2.226594         2.606339         1.353749
