19
Iteration:  4483charge 0 multiplicity 1
 C        -0.014883        -0.036718        -0.127790
 C         1.461288         0.393608        -0.086712
 O         2.297339         0.152492         1.222893
 C         3.200248         0.641313         0.234044
 C         2.457202        -0.290816        -0.903021
 C         2.411838         0.352277        -2.309842
 C         2.323865         1.841110        -1.914349
 C         2.214306         1.728228        -0.284636
 O         2.113695         2.893308         0.429021
 H        -0.534517         0.654318         0.631791
 H        -0.401184         0.384376        -1.060070
 H        -0.326089        -1.165676        -0.083990
 H         4.227086         0.657144         0.564068
 H         2.323469        -1.338647        -0.871293
 H         3.247491         0.197146        -3.120199
 H         1.461997        -0.099876        -2.675128
 H         3.116302         2.461784        -2.312259
 H         1.466372         2.485285        -2.310956
 H         2.089535         2.630842         1.390032
