19
Iteration:  4060
 C        -0.019523         0.294541         0.034906
 C         1.429956         0.412523        -0.086227
 O         2.306718         0.070033         1.183901
 C         3.257677         0.432840         0.129477
 C         2.561082        -0.268386        -0.931231
 C         2.602843         0.367496        -2.274630
 C         2.245027         1.944764        -1.939597
 C         2.105468         1.666186        -0.439690
 O         1.916257         2.767509         0.532826
 H        -0.305389         0.746244         0.963483
 H        -0.435416         0.653842        -0.923996
 H        -0.322487        -0.893133         0.104414
 H         4.341773         0.427692         0.235014
 H         2.542188        -1.306959        -0.750467
 H         3.583412         0.406030        -2.727145
 H         1.955297         0.010680        -3.139252
 H         3.091077         2.704234        -2.273742
 H         1.236501         2.375180        -2.280513
 H         2.435442         2.415646         1.282018
