19
Iteration:  3371
 C        -0.041326         0.171658         0.064854
 C         1.420466         0.437295        -0.121537
 O         2.225486         0.117711         1.169294
 C         3.254280         0.566736         0.136850
 C         2.492683        -0.271072        -0.897121
 C         2.619136         0.402273        -2.285657
 C         2.225247         1.826114        -1.877435
 C         2.266951         1.703342        -0.349299
 O         2.019248         2.771739         0.382046
 H        -0.612571         1.045400         0.508693
 H        -0.661437        -0.020860        -0.813170
 H        -0.099417        -0.715837         0.654879
 H         4.274124         0.352681         0.465543
 H         2.565029        -1.302253        -0.609101
 H         3.579357         0.394658        -2.753116
 H         1.982558         0.004417        -3.082285
 H         2.816906         2.671411        -2.432715
 H         1.237211         1.999451        -2.243010
 H         2.040978         2.448698         1.302488
