19
Iteration:  4471charge 0 multiplicity 1
 C         0.010772         0.029729        -0.059923
 C         1.427893         0.338313         0.006177
 O         2.197800         0.115774         1.231951
 C         3.223794         0.567513         0.241819
 C         2.539598        -0.288723        -0.923810
 C         2.362533         0.387096        -2.311028
 C         2.309749         1.945129        -1.906300
 C         2.297140         1.757746        -0.424028
 O         2.081775         2.879867         0.376419
 H        -0.674058         0.454192         0.788017
 H        -0.311669         0.311741        -1.049549
 H        -0.053701        -1.109912         0.026786
 H         4.231066         0.610939         0.628562
 H         2.723774        -1.346178        -0.769169
 H         3.305469         0.001784        -2.832386
 H         1.502148         0.123823        -2.953905
 H         3.247603         2.461333        -2.193143
 H         1.372693         2.386816        -2.262201
 H         2.012330         2.483782         1.278926
