19
Iteration:  3632charge 0 multiplicity 1
 C        -0.085023        -0.012837         0.145342
 C         1.340106         0.329064        -0.156383
 O         2.256246         0.049257         1.139867
 C         3.122647         0.551217         0.137766
 C         2.455697        -0.213926        -0.963013
 C         2.614810         0.361561        -2.326874
 C         2.376702         1.912610        -1.823591
 C         2.184455         1.772150        -0.351627
 O         2.100320         2.963510         0.410455
 H        -0.447476         0.605609         1.047323
 H        -0.715089         0.077668        -0.739843
 H        -0.016865        -1.066364         0.328907
 H         4.155531         0.688919         0.372636
 H         2.689188        -1.294706        -0.864960
 H         3.524767        -0.028661        -2.866163
 H         1.822320         0.132849        -3.086007
 H         3.315530         2.536172        -1.963489
 H         1.593859         2.413215        -2.360074
 H         2.143199         2.482251         1.253681
