19
Iteration:  4506
 C        -0.135877         0.051631        -0.099805
 C         1.467678         0.388792         0.020791
 O         2.275902         0.202688         1.193450
 C         3.207758         0.626296         0.003380
 C         2.542385        -0.372357        -0.892285
 C         2.445225         0.350688        -2.255646
 C         2.317512         1.875892        -1.794554
 C         2.188535         1.734874        -0.325029
 O         2.087356         2.843843         0.420930
 H        -0.838859         0.618436         0.554915
 H        -0.289404         0.361866        -1.172539
 H        -0.179970        -1.144438        -0.078662
 H         4.270499         0.564970         0.289103
 H         2.835269        -1.379865        -0.754074
 H         3.504283         0.087661        -2.728473
 H         1.625373        -0.064846        -2.889117
 H         3.084688         2.529056        -2.077008
 H         1.491681         2.577124        -2.267406
 H         2.171298         2.385634         1.285291
