19
Iteration:   686charge 0 multiplicity 1
 C        -0.091878         0.300840        -0.015843
 C         1.481824         0.313716        -0.032813
 O         2.303372         0.122723         1.158081
 C         3.325294         0.511860         0.164753
 C         2.548618        -0.297189        -0.909079
 C         2.542913         0.463934        -2.297506
 C         2.139702         1.873756        -1.811157
 C         2.226150         1.613818        -0.355553
 O         1.945520         2.705921         0.370676
 H        -0.383100         1.225683         0.560559
 H        -0.379563         0.479225        -1.128013
 H        -0.656495        -0.538204         0.363336
 H         4.385880         0.368984         0.523258
 H         2.548408        -1.332830        -1.066483
 H         3.642922         0.532187        -2.551379
 H         1.964040        -0.018377        -3.042564
 H         3.018500         2.548413        -2.017448
 H         1.178188         2.240724        -2.251014
 H         2.510294         2.999815         1.106732
