19
Iteration:  2164charge 0 multiplicity 1
 C        -0.068427        -0.033211         0.076274
 C         1.413453         0.349992        -0.112832
 O         2.191950         0.130875         1.149689
 C         3.218038         0.569004         0.033261
 C         2.463512        -0.309528        -0.903985
 C         2.497247         0.399428        -2.329997
 C         2.422356         1.971116        -1.835363
 C         2.232290         1.706898        -0.382909
 O         2.074381         2.907262         0.475369
 H        -0.380767         0.601813         0.868676
 H        -0.724490         0.118811        -0.811488
 H        -0.098646        -0.991875         0.533359
 H         4.232871         0.632410         0.360313
 H         2.467483        -1.497636        -0.720508
 H         3.314573         0.132832        -2.966979
 H         1.568488         0.223906        -2.914618
 H         3.414623         2.470307        -2.081982
 H         1.621102         2.526040        -2.301403
 H         2.067343         2.477427         1.366564
