19
Iteration:  3000charge 0 multiplicity 1
 C        -0.033877         0.275260         0.124009
 C         1.477500         0.380440        -0.034835
 O         2.362078         0.127433         1.148722
 C         3.285870         0.586077         0.119526
 C         2.455752        -0.343664        -0.970095
 C         2.542031         0.344328        -2.394808
 C         2.453731         1.849702        -1.926364
 C         2.129678         1.690689        -0.293379
 O         1.748924         2.763964         0.464048
 H        -0.210101         1.289346         0.699771
 H        -0.526612         0.319420        -0.902861
 H        -0.331207        -0.574933         0.649758
 H         4.356379         0.648154         0.444253
 H         2.686515        -1.468776        -0.864441
 H         3.569481         0.184941        -2.825714
 H         1.953663        -0.108001        -3.177429
 H         3.492576         2.301569        -2.205663
 H         1.719858         2.402661        -2.634300
 H         1.662122         2.490158         1.395050
