19
Iteration:  4675charge 0 multiplicity 1
 C        -0.049371         0.021507        -0.134813
 C         1.409784         0.383336        -0.021843
 O         2.315008         0.159019         1.260669
 C         3.233119         0.545606         0.157965
 C         2.351591        -0.313187        -0.901365
 C         2.505962         0.438850        -2.253262
 C         2.281800         1.885561        -1.864012
 C         2.213013         1.697652        -0.358823
 O         2.115417         2.862203         0.350768
 H        -0.576296         0.370991         0.788630
 H        -0.387263         0.494017        -1.080214
 H         0.057804        -0.998170        -0.139822
 H         4.298768         0.598751         0.463618
 H         2.359327        -1.440407        -0.929225
 H         3.431067         0.215880        -2.755599
 H         1.703131         0.052437        -2.883925
 H         3.128662         2.634801        -1.985030
 H         1.402282         2.362211        -2.172505
 H         2.231715         2.604995         1.296087
