19
Iteration:  3898
 C        -0.038252         0.227842        -0.023771
 C         1.477921         0.309656         0.002130
 O         2.276623         0.062101         1.201105
 C         3.221851         0.622735         0.059349
 C         2.529577        -0.272606        -0.997429
 C         2.490860         0.435618        -2.282977
 C         2.300248         1.880595        -1.804460
 C         2.231347         1.640857        -0.331343
 O         1.949958         2.759370         0.420941
 H        -0.596633         0.724812         0.779095
 H        -0.321174         0.688016        -1.026458
 H        -0.424599        -0.853016        -0.024763
 H         4.298829         0.594364         0.389746
 H         2.583235        -1.346060        -1.052497
 H         3.490916         0.520942        -2.692880
 H         1.764234         0.120991        -3.147512
 H         3.189133         2.648008        -1.966610
 H         1.368133         2.257876        -2.085777
 H         2.343429         2.501376         1.289283
