19
Iteration:  3431charge 0 multiplicity 1
 C        -0.080078        -0.031460        -0.071294
 C         1.448892         0.401786        -0.048363
 O         2.227934         0.183496         1.162381
 C         3.281529         0.634906         0.145779
 C         2.460880        -0.319805        -0.932924
 C         2.335199         0.339985        -2.203223
 C         2.408894         1.910528        -1.896518
 C         2.320174         1.767136        -0.326863
 O         2.059106         2.869719         0.413639
 H        -0.812963         0.379601         0.595011
 H        -0.304119         0.085662        -1.167447
 H        -0.029113        -1.181315         0.087962
 H         4.304746         0.530886         0.601320
 H         2.535030        -1.362231        -0.565496
 H         3.144147         0.014447        -2.944594
 H         1.303850         0.067110        -2.505997
 H         3.319275         2.183351        -2.301961
 H         1.618292         2.469635        -2.515472
 H         2.110214         2.679172         1.371496
