19
Iteration:   687charge 0 multiplicity 1
 C        -0.098169         0.297809        -0.014068
 C         1.479199         0.309396        -0.038933
 O         2.306966         0.129547         1.155150
 C         3.329156         0.503819         0.163608
 C         2.546423        -0.296587        -0.898222
 C         2.550075         0.467632        -2.296077
 C         2.142630         1.879930        -1.807469
 C         2.221707         1.612625        -0.345890
 O         1.947747         2.708197         0.367180
 H        -0.398603         1.196958         0.559127
 H        -0.391748         0.466571        -1.149294
 H        -0.670535        -0.525218         0.349610
 H         4.404615         0.387068         0.501183
 H         2.558321        -1.391132        -1.056577
 H         3.632748         0.525599        -2.580702
 H         1.911713        -0.031221        -3.076339
 H         3.024163         2.560057        -2.038826
 H         1.173948         2.255539        -2.256208
 H         2.511113         2.989779         1.106920
