19
Iteration:  1072
 C        -0.109643         0.069265         0.116431
 C         1.404007         0.303479        -0.081137
 O         2.257303         0.091869         1.169144
 C         3.210618         0.637549         0.123022
 C         2.512844        -0.311023        -0.926774
 C         2.507929         0.407473        -2.345362
 C         2.402835         1.931408        -1.868420
 C         2.162573         1.729694        -0.355815
 O         2.091008         2.834143         0.381296
 H        -0.455413         0.881192         0.780193
 H        -0.583723         0.152476        -0.794599
 H        -0.311516        -0.976325         0.535815
 H         4.151934         0.751120         0.577498
 H         2.590416        -1.353667        -0.772426
 H         3.500892         0.198642        -2.950125
 H         1.630434         0.008928        -2.932737
 H         3.224638         2.656088        -2.043444
 H         1.552550         2.270618        -2.593138
 H         1.921412         2.524585         1.309226
