19
Iteration:  3454charge 0 multiplicity 1
 C         0.021845         0.004034         0.080842
 C         1.397003         0.414805        -0.079366
 O         2.206198         0.264431         1.237992
 C         3.155736         0.491700         0.144858
 C         2.504971        -0.314257        -0.999534
 C         2.458628         0.400830        -2.347130
 C         2.426479         1.897080        -1.828700
 C         2.233299         1.673090        -0.378824
 O         2.034538         2.835212         0.360587
 H        -0.348117         0.560351         0.950558
 H        -0.476469         0.449905        -0.835941
 H        -0.160833        -1.068186         0.274743
 H         4.119518         0.747629         0.555309
 H         2.780338        -1.366948        -0.914751
 H         3.379500         0.182652        -2.983336
 H         1.543885        -0.020819        -2.797923
 H         3.343984         2.319303        -2.072644
 H         1.567287         2.534997        -2.238578
 H         1.907483         2.408621         1.246427
