19
Iteration:  3060
 C        -0.063190        -0.100824        -0.019218
 C         1.384737         0.377248         0.055001
 O         2.177680         0.156208         1.256928
 C         3.130499         0.625411         0.100715
 C         2.462304        -0.285001        -0.994259
 C         2.558481         0.388838        -2.318089
 C         2.244613         1.833648        -1.887610
 C         2.216225         1.739038        -0.324254
 O         2.286468         2.934298         0.374003
 H        -0.790032         0.339496         0.585679
 H        -0.372645         0.024988        -1.051055
 H         0.051416        -1.245918         0.217532
 H         4.151297         0.870873         0.406433
 H         2.702142        -1.337716        -0.943995
 H         3.585640         0.438502        -2.639502
 H         1.760416         0.072068        -3.040999
 H         2.849432         2.625804        -2.250947
 H         1.181227         1.982119        -2.198144
 H         2.140732         2.990317         1.345353
