19
Iteration:  1681charge 0 multiplicity 1
 C        -0.051776         0.001798         0.102608
 C         1.412275         0.382968        -0.024860
 O         2.136676         0.164794         1.211601
 C         3.144607         0.531613         0.115467
 C         2.501822        -0.275807        -0.963859
 C         2.564543         0.432237        -2.359740
 C         2.321129         1.911839        -1.868854
 C         2.217560         1.675819        -0.372486
 O         2.167219         2.842019         0.381366
 H        -0.674161         0.697086         0.793515
 H        -0.463447        -0.082604        -0.882179
 H        -0.040923        -1.045725         0.568805
 H         4.165201         0.648326         0.329829
 H         2.561682        -1.343430        -0.781708
 H         3.465670         0.456346        -2.919156
 H         1.749864         0.111933        -3.084359
 H         3.053211         2.673295        -2.094200
 H         1.445102         2.276447        -2.385076
 H         2.438081         2.718955         1.296976
