19
Iteration:   743charge 0 multiplicity 1
 C        -0.026725        -0.059187         0.081049
 C         1.384000         0.446960        -0.097782
 O         2.182217         0.164410         1.168048
 C         3.157546         0.586261         0.101863
 C         2.506155        -0.315017        -0.926598
 C         2.431406         0.379757        -2.290629
 C         2.506981         1.923727        -1.885646
 C         2.267492         1.764225        -0.376643
 O         2.108058         2.852316         0.458221
 H        -0.611216         0.377316         0.877159
 H        -0.745662        -0.080167        -0.842970
 H         0.076080        -1.115373         0.334184
 H         4.210366         0.605903         0.444683
 H         2.544835        -1.465418        -0.942197
 H         3.091557         0.047240        -3.072044
 H         1.395948         0.243082        -2.770527
 H         3.406671         2.541558        -2.157632
 H         1.677767         2.521255        -2.389504
 H         1.479593         2.488322         1.102703
