19
Iteration:  4177
 C        -0.114304         0.183464        -0.072272
 C         1.374326         0.328676         0.061187
 O         2.328775         0.187861         1.216304
 C         3.239175         0.566890         0.036668
 C         2.533562        -0.328939        -0.983422
 C         2.520149         0.396510        -2.361929
 C         2.285268         1.915193        -1.824584
 C         2.263660         1.651436        -0.349483
 O         2.009815         2.793394         0.507074
 H        -0.590354         0.947573         0.556629
 H        -0.297198         0.095262        -1.104723
 H        -0.463098        -0.738765         0.421809
 H         4.292791         0.571713         0.257429
 H         2.731531        -1.404333        -0.782184
 H         3.423183         0.234969        -3.039422
 H         1.736049        -0.057046        -2.974118
 H         3.055313         2.534160        -2.156511
 H         1.355405         2.334518        -2.331923
 H         2.005140         2.369538         1.380473
