19
Iteration:  4837
 C         0.029465        -0.029382        -0.055703
 C         1.375966         0.390755         0.043608
 O         2.224978         0.196179         1.166625
 C         3.201729         0.590105         0.137902
 C         2.397479        -0.288566        -0.969437
 C         2.475996         0.376321        -2.320939
 C         2.291014         1.854122        -1.819589
 C         2.219758         1.706218        -0.332084
 O         2.184797         2.898912         0.421070
 H        -0.827331         0.411268         0.389279
 H        -0.248970         0.126597        -1.081765
 H        -0.103311        -1.003520         0.167546
 H         4.237348         0.433645         0.492316
 H         2.616726        -1.396161        -0.831455
 H         3.438339         0.301150        -2.856629
 H         1.736627         0.184394        -3.081087
 H         3.121292         2.459650        -1.977260
 H         1.379791         2.276880        -2.340054
 H         2.084149         2.641057         1.384080
