19
Iteration:  1341
 C        -0.141753         0.161446         0.068089
 C         1.418730         0.306925        -0.024952
 O         2.323492         0.210842         1.210547
 C         3.239650         0.538065         0.140128
 C         2.552348        -0.422364        -0.901040
 C         2.561189         0.428334        -2.388594
 C         2.228375         1.901249        -1.833172
 C         2.226295         1.664437        -0.369428
 O         2.033595         2.837110         0.355854
 H        -0.437964         0.907386         0.743224
 H        -0.599530         0.323630        -0.879385
 H        -0.458207        -0.793433         0.469593
 H         4.334794         0.720425         0.368334
 H         2.657753        -1.484032        -0.986574
 H         3.442757         0.291628        -2.936453
 H         1.789280         0.133119        -3.149508
 H         3.191183         2.451064        -2.064009
 H         1.395111         2.340623        -2.336660
 H         1.842569         2.548776         1.287777
