19
Iteration:   403
 C        -0.014303        -0.034252         0.020312
 C         1.397731         0.304585        -0.035052
 O         2.191467         0.246002         1.131969
 C         3.185647         0.621506         0.131703
 C         2.531235        -0.373195        -0.967306
 C         2.361008         0.385535        -2.285287
 C         2.378776         1.940752        -1.806762
 C         2.213535         1.707926        -0.368791
 O         2.148413         2.876590         0.400838
 H        -0.691896         0.542184         0.712484
 H        -0.366696         0.022890        -0.984350
 H        -0.130964        -1.098866         0.247229
 H         4.205770         0.687763         0.531319
 H         2.621521        -1.516932        -0.932853
 H         3.189477         0.153829        -2.999438
 H         1.396708         0.112183        -2.718168
 H         3.458393         2.331642        -1.867868
 H         1.734336         2.702776        -2.223294
 H         2.386063         2.617628         1.310908
