19
Iteration:  3604charge 0 multiplicity 1
 C        -0.056821        -0.076884         0.001661
 C         1.392609         0.341270        -0.016760
 O         2.185248         0.237380         1.249870
 C         3.163639         0.570070         0.106042
 C         2.483416        -0.297864        -0.956225
 C         2.381189         0.486858        -2.355449
 C         2.452241         1.902752        -1.780276
 C         2.287277         1.684452        -0.355938
 O         2.140945         2.838099         0.359800
 H        -0.708444         0.477735         0.594002
 H        -0.364140        -0.183444        -1.036636
 H         0.054505        -1.175119         0.376866
 H         4.246893         0.648012         0.466149
 H         2.889640        -1.308680        -0.957763
 H         3.154020         0.157815        -3.021512
 H         1.440861         0.486422        -2.929587
 H         3.293591         2.550379        -2.070301
 H         1.597450         2.514490        -2.214975
 H         1.820744         2.446618         1.194953
