19
Iteration:  4714
 C        -0.012664         0.176287         0.129201
 C         1.379342         0.339251        -0.116654
 O         2.204925         0.034969         1.147183
 C         3.204999         0.595283         0.163975
 C         2.529990        -0.298739        -0.935569
 C         2.648964         0.413282        -2.249812
 C         2.270762         1.899535        -1.894056
 C         2.209861         1.644443        -0.428363
 O         2.053191         2.855755         0.394703
 H        -0.282524         0.842235         0.896743
 H        -0.741578         0.465823        -0.656371
 H        -0.579874        -0.768237         0.332712
 H         4.235853         0.737637         0.522079
 H         2.598905        -1.385113        -0.979463
 H         3.661148         0.329163        -2.727483
 H         1.805170         0.006270        -2.836147
 H         3.054051         2.544588        -2.174515
 H         1.371194         2.338439        -2.494204
 H         1.861645         2.545156         1.287930
