19
Iteration:   924charge 0 multiplicity 1
 C        -0.134669        -0.147134         0.104466
 C         1.355044         0.294830        -0.040403
 O         2.203394         0.104692         1.156633
 C         3.184065         0.601228         0.169486
 C         2.470666        -0.262806        -0.967101
 C         2.451810         0.417838        -2.313675
 C         2.455233         1.997343        -1.849699
 C         2.189262         1.733013        -0.355233
 O         2.219815         2.923415         0.332713
 H        -0.679950         0.505832         0.800545
 H        -0.556025        -0.073059        -0.908527
 H        -0.186473        -1.140525         0.506795
 H         4.270549         0.739537         0.527282
 H         2.582470        -1.319239        -0.839504
 H         3.336689         0.377012        -3.073278
 H         1.530679         0.206894        -2.880614
 H         3.501490         2.278768        -1.929113
 H         1.867139         2.711325        -2.331439
 H         1.793165         2.797726         1.190335
