19
Iteration:   450
 C        -0.018170         0.166061         0.106857
 C         1.406010         0.439493        -0.013356
 O         2.283251         0.091671         1.121820
 C         3.239551         0.488522         0.077888
 C         2.462007        -0.305879        -0.992760
 C         2.547929         0.404898        -2.272796
 C         2.379033         1.805182        -1.821828
 C         2.250851         1.711334        -0.312027
 O         1.943699         2.885692         0.337648
 H        -0.556362         0.805776         0.815389
 H        -0.481940         0.243883        -0.970558
 H        -0.216415        -0.869981         0.426062
 H         4.302663         0.455158         0.348679
 H         2.557799        -1.468172        -0.682837
 H         3.472791         0.342365        -2.755464
 H         1.696069         0.156898        -3.033453
 H         3.132445         2.531091        -1.995503
 H         1.433035         2.204398        -2.159412
 H         1.710153         2.591047         1.256252
