19
Iteration:  2923
 C        -0.160277        -0.040807        -0.055058
 C         1.379290         0.424718         0.010512
 O         2.249362         0.118939         1.166360
 C         3.269250         0.612050         0.117124
 C         2.483451        -0.283443        -0.893046
 C         2.553131         0.391054        -2.260181
 C         2.218196         1.855161        -1.838513
 C         2.211420         1.713359        -0.288976
 O         2.224145         2.932841         0.333415
 H        -0.900329         0.422741         0.668185
 H        -0.539500        -0.036180        -1.095427
 H        -0.022620        -1.087614         0.141391
 H         4.331438         0.838105         0.325197
 H         2.411277        -1.427162        -0.920963
 H         3.572241         0.254287        -2.653674
 H         1.908754        -0.096769        -2.954290
 H         3.036450         2.645010        -2.075004
 H         1.217380         2.202864        -2.230278
 H         1.848196         2.543035         1.167283
