19
Iteration:   839charge 0 multiplicity 1
 C        -0.039534         0.367609        -0.024106
 C         1.459894         0.303805        -0.072884
 O         2.313971         0.155836         1.200473
 C         3.298901         0.501390         0.169877
 C         2.563075        -0.269103        -0.962128
 C         2.576641         0.429232        -2.298371
 C         2.151529         1.878706        -1.811311
 C         2.148725         1.565933        -0.372454
 O         1.987983         2.714974         0.408049
 H        -0.234414         1.148100         0.689126
 H        -0.590324         0.693128        -1.009377
 H        -0.584599        -0.490639         0.301786
 H         4.415474         0.501584         0.458902
 H         2.690588        -1.365017        -0.790088
 H         3.628989         0.499128        -2.784151
 H         1.971578        -0.023558        -3.014555
 H         2.866290         2.609945        -2.247742
 H         1.149000         2.020726        -2.316280
 H         1.833784         2.280610         1.303768
