19
Iteration:  1233charge 0 multiplicity 1
 C        -0.086898         0.240102         0.211201
 C         1.380798         0.429305        -0.029354
 O         2.288604         0.077438         1.095898
 C         3.181454         0.603095         0.144613
 C         2.528758        -0.322489        -0.989652
 C         2.690713         0.337224        -2.369076
 C         2.329325         1.810506        -1.896480
 C         2.221180         1.712811        -0.409462
 O         1.909766         2.816445         0.456501
 H        -0.481417         0.975718         0.943033
 H        -0.580764         0.378407        -0.778152
 H        -0.226150        -0.839999         0.637398
 H         4.344055         0.654370         0.363084
 H         2.567275        -1.383847        -0.943778
 H         3.623464         0.296293        -2.863971
 H         1.886351        -0.059203        -2.916552
 H         2.962190         2.524609        -2.384700
 H         1.347258         2.035060        -2.277107
 H         2.322360         2.533335         1.307776
