19
Iteration:  4841charge 0 multiplicity 1
 C         0.002229        -0.033650        -0.051806
 C         1.353412         0.417931         0.018553
 O         2.248248         0.210554         1.187796
 C         3.225387         0.557199         0.089860
 C         2.389978        -0.311380        -0.973445
 C         2.506893         0.367647        -2.296731
 C         2.272844         1.870868        -1.810909
 C         2.212018         1.701451        -0.332933
 O         2.168855         2.910419         0.444078
 H        -0.895650         0.463520         0.494049
 H        -0.217720         0.206029        -1.121789
 H        -0.029772        -1.209623         0.152835
 H         4.277528         0.355181         0.494589
 H         2.535894        -1.383183        -0.887371
 H         3.407141         0.363457        -2.952624
 H         1.795131         0.034803        -3.129691
 H         3.273285         2.473127        -2.016336
 H         1.491088         2.244250        -2.363839
 H         2.022811         2.828168         1.384459
