19
Iteration:  2394charge 0 multiplicity 1
 C        -0.098723         0.031012         0.007464
 C         1.379631         0.333938        -0.004964
 O         2.309638         0.213466         1.235022
 C         3.144037         0.523331         0.083928
 C         2.498270        -0.321603        -0.956466
 C         2.479240         0.411617        -2.305465
 C         2.391353         1.933932        -1.854191
 C         2.193963         1.701558        -0.384074
 O         2.054283         2.842385         0.435392
 H        -0.692699         0.774201         0.525916
 H        -0.372801         0.283154        -1.063779
 H        -0.232688        -1.062394         0.197263
 H         4.218038         0.592166         0.269144
 H         2.602196        -1.463144        -0.837329
 H         3.413332         0.290827        -2.842588
 H         1.615735         0.035009        -2.979674
 H         3.447926         2.209735        -2.049878
 H         1.734223         2.555544        -2.402613
 H         2.472613         2.673386         1.297634
