19
Iteration:   385
 C        -0.048947        -0.073125        -0.041083
 C         1.399562         0.465655        -0.121952
 O         2.234114         0.237387         1.260026
 C         3.231214         0.552427         0.153406
 C         2.444219        -0.229912        -0.882372
 C         2.386030         0.421101        -2.337549
 C         2.391071         1.888028        -1.872146
 C         2.306405         1.700329        -0.400954
 O         2.123516         2.796057         0.447545
 H        -0.499230         0.530675         0.746226
 H        -0.723163        -0.120962        -1.001758
 H        -0.007668        -1.089174         0.359975
 H         4.311252         0.638740         0.319469
 H         2.546446        -1.381810        -0.836624
 H         3.183567         0.151222        -2.958326
 H         1.390180         0.089472        -2.852332
 H         3.211326         2.331078        -2.316072
 H         1.464572         2.291819        -2.239801
 H         1.977284         2.483773         1.362653
