19
Iteration:  2878
 C        -0.095917        -0.067967         0.042520
 C         1.394051         0.417402        -0.051065
 O         2.148986         0.171624         1.161122
 C         3.208109         0.598362         0.103425
 C         2.537176        -0.268241        -0.929819
 C         2.525486         0.382898        -2.218466
 C         2.257672         1.877479        -1.921868
 C         2.298878         1.713069        -0.338461
 O         2.151861         2.861977         0.379268
 H        -0.512878         0.519813         0.845602
 H        -0.623010         0.160364        -0.892773
 H        -0.128999        -1.173569         0.128800
 H         4.175795         0.638915         0.574937
 H         2.625204        -1.384486        -0.869857
 H         3.421981         0.388967        -2.808155
 H         1.733175         0.070498        -2.898774
 H         3.220047         2.441874        -2.273112
 H         1.324660         2.375503        -2.164549
 H         2.330446         2.736460         1.343874
