19
Iteration:  4776
 C        -0.036190         0.232866         0.013748
 C         1.502209         0.393624        -0.042158
 O         2.294060         0.077370         1.241123
 C         3.210221         0.604675         0.113637
 C         2.394408        -0.331114        -0.965260
 C         2.549979         0.408898        -2.316727
 C         2.313374         1.884458        -1.881109
 C         2.265377         1.693561        -0.328257
 O         1.925790         2.750101         0.401411
 H        -0.459697         1.184338         0.494261
 H        -0.369021        -0.107755        -0.982514
 H        -0.107575        -0.729296         0.725137
 H         4.341953         0.626462         0.080521
 H         2.596547        -1.378630        -0.775598
 H         3.511607         0.047924        -2.747203
 H         1.828731         0.232293        -3.180264
 H         3.342614         2.523294        -1.977674
 H         1.577298         2.476096        -2.436255
 H         1.708784         2.383641         1.265155
