19
Iteration:  1736
 C        -0.001869         0.343479         0.179089
 C         1.515202         0.384456        -0.050536
 O         2.265025         0.078588         1.152873
 C         3.235541         0.480556         0.144111
 C         2.551591        -0.320831        -1.052365
 C         2.567816         0.352860        -2.347148
 C         2.343450         1.867421        -1.891740
 C         2.245770         1.712144        -0.334953
 O         1.782518         2.745169         0.401854
 H        -0.261583         1.181814         0.955192
 H        -0.485198         0.616469        -0.736051
 H        -0.241516        -0.696525         0.425141
 H         4.135354         0.739130         0.520997
 H         2.572762        -1.381558        -0.958903
 H         3.483308         0.371328        -2.871312
 H         1.793767         0.026315        -3.103036
 H         3.226812         2.466632        -2.014819
 H         1.445312         2.283393        -2.309102
 H         1.961492         2.507300         1.324650
