19
Iteration:  1572charge 0 multiplicity 1
 C         0.048636         0.332020         0.184553
 C         1.450699         0.322178        -0.062262
 O         2.253471         0.091018         1.155295
 C         3.144568         0.589229         0.128551
 C         2.524859        -0.358497        -0.952831
 C         2.634100         0.337565        -2.288987
 C         2.303054         1.898956        -1.890485
 C         2.193871         1.671299        -0.473322
 O         1.921852         2.746715         0.398827
 H        -0.234745         1.163862         0.942175
 H        -0.568942         0.718764        -0.579859
 H        -0.432633        -0.641640         0.552929
 H         4.246963         0.854424         0.316465
 H         2.656956        -1.469016        -0.811674
 H         3.559243         0.411636        -2.836281
 H         1.960602        -0.048012        -3.148435
 H         3.168612         2.591620        -2.081781
 H         1.377686         2.338988        -2.345479
 H         1.747804         2.297551         1.249117
