19
Iteration:  4750charge 0 multiplicity 1
 C        -0.156758         0.245113         0.181000
 C         1.455276         0.371940        -0.054210
 O         2.277906         0.178224         1.139699
 C         3.253398         0.444441         0.045680
 C         2.542159        -0.349077        -1.027970
 C         2.690970         0.404883        -2.298287
 C         2.369971         1.881753        -1.869840
 C         2.235709         1.694621        -0.319785
 O         1.828447         2.760737         0.440421
 H        -0.349203         1.200061         0.672646
 H        -0.529028         0.350075        -0.868243
 H        -0.488522        -0.560138         0.710777
 H         4.328797         0.680001         0.096336
 H         2.399198        -1.467637        -0.988737
 H         3.583018         0.139929        -2.844041
 H         1.921023         0.101357        -2.982486
 H         3.180517         2.531000        -2.038769
 H         1.557635         2.259004        -2.429678
 H         1.889294         2.558313         1.381203
