19
Iteration:  1981
 C        -0.000456        -0.010411        -0.018772
 C         1.395443         0.372488        -0.004912
 O         2.285130         0.122139         1.194517
 C         3.163339         0.551744         0.170765
 C         2.375841        -0.326490        -1.009108
 C         2.499223         0.435889        -2.335699
 C         2.307809         1.960399        -1.817163
 C         2.176005         1.665702        -0.324930
 O         2.217717         2.880098         0.369858
 H        -0.641138         0.550790         0.692764
 H        -0.637771         0.226958        -0.999661
 H        -0.314010        -1.039474         0.402912
 H         4.219415         0.659625         0.591159
 H         2.485556        -1.426180        -0.946431
 H         3.585885         0.407960        -2.807321
 H         1.810739         0.054645        -3.082891
 H         3.133344         2.657270        -1.968533
 H         1.419747         2.556726        -2.187019
 H         1.779771         2.667741         1.221120
