19
Iteration:  4303
 C        -0.016544        -0.008969        -0.011423
 C         1.409282         0.311025        -0.056789
 O         2.135152         0.244441         1.213996
 C         3.229676         0.575751         0.068838
 C         2.540753        -0.275510        -0.932138
 C         2.407453         0.441083        -2.235063
 C         2.369336         1.943742        -1.861065
 C         2.255234         1.657028        -0.384230
 O         2.102068         2.797723         0.379817
 H        -0.421039         0.491556         0.883441
 H        -0.563012         0.136021        -1.012560
 H         0.086088        -1.042308         0.298883
 H         4.250290         0.642965         0.503236
 H         2.644096        -1.387394        -1.030581
 H         3.230411         0.197874        -2.834302
 H         1.423091         0.248657        -2.700824
 H         3.411998         2.407103        -1.964659
 H         1.591109         2.542821        -2.142807
 H         2.092402         2.506604         1.307564
