19
Iteration:  2072charge 0 multiplicity 1
 C        -0.072080         0.283744        -0.015621
 C         1.372196         0.335397        -0.106192
 O         2.403059         0.040813         1.180249
 C         3.212022         0.579182         0.087990
 C         2.489379        -0.276898        -0.943726
 C         2.515987         0.420738        -2.293174
 C         2.318338         1.843652        -1.859232
 C         2.239363         1.725525        -0.355363
 O         1.969766         2.747015         0.485425
 H        -0.386786         0.973951         0.839276
 H        -0.630073         0.469839        -0.923629
 H        -0.313636        -0.647620         0.567969
 H         4.318743         0.627055         0.305876
 H         2.732174        -1.288469        -0.972782
 H         3.462616         0.211339        -2.736094
 H         1.767347         0.011901        -2.984868
 H         3.088398         2.472983        -2.218576
 H         1.388947         2.279685        -2.202382
 H         1.594929         2.486542         1.367128
