19
Iteration:  1895
 C        -0.014512         0.279390         0.103481
 C         1.438163         0.322851        -0.032818
 O         2.339191         0.169643         1.146609
 C         3.261606         0.441308         0.133135
 C         2.462033        -0.312966        -1.029289
 C         2.579821         0.454423        -2.328685
 C         2.406609         1.878998        -1.844587
 C         2.158845         1.646200        -0.370258
 O         1.849234         2.778425         0.428992
 H        -0.352371         1.064344         0.748012
 H        -0.514230         0.441888        -0.910152
 H        -0.342356        -0.778723         0.403661
 H         4.371736         0.234655         0.490263
 H         2.399991        -1.409491        -1.001686
 H         3.452869         0.410662        -3.029271
 H         1.753790         0.045541        -2.859183
 H         3.138187         2.629062        -1.940997
 H         1.420969         2.304987        -2.165431
 H         2.031048         2.507491         1.350680
