19
Iteration:  4943
 C         0.012612         0.262701         0.033457
 C         1.467805         0.359644        -0.045636
 O         2.330723         0.162610         1.235353
 C         3.227069         0.447822         0.090482
 C         2.462173        -0.349162        -1.003735
 C         2.611481         0.430443        -2.315963
 C         2.290043         1.883383        -1.826714
 C         2.197735         1.624430        -0.355563
 O         1.881974         2.811709         0.429796
 H        -0.384386         0.977845         0.727214
 H        -0.422241         0.423231        -1.022995
 H        -0.222055        -0.805685         0.190772
 H         4.260075         0.362916         0.160929
 H         2.374961        -1.424407        -0.966350
 H         3.578256         0.344255        -2.798992
 H         1.810936         0.237039        -3.039384
 H         3.129379         2.494481        -2.039958
 H         1.404015         2.287000        -2.299634
 H         1.727177         2.744083         1.404079
