19
Iteration:  2324
 C        -0.063609         0.116259         0.078520
 C         1.349322         0.357544        -0.063777
 O         2.320806         0.073895         1.190540
 C         3.152322         0.558072         0.060505
 C         2.470102        -0.323045        -0.949099
 C         2.524588         0.445807        -2.255739
 C         2.403824         1.909997        -1.802298
 C         2.265284         1.654615        -0.326871
 O         1.971680         2.850579         0.330844
 H        -0.657811         0.901397         0.648248
 H        -0.593081         0.363138        -0.813784
 H        -0.209691        -0.908323         0.327235
 H         4.252541         0.716159         0.133816
 H         2.664209        -1.338527        -1.028527
 H         3.540056         0.374181        -2.742397
 H         1.760349         0.033766        -3.006756
 H         3.396581         2.416070        -1.903798
 H         1.549803         2.515726        -2.231397
 H         2.277665         2.643572         1.249967
