19
Iteration:  2721charge 0 multiplicity 1
 C        -0.029825        -0.056406        -0.038883
 C         1.352158         0.407709        -0.057000
 O         2.231165         0.146289         1.200762
 C         3.169354         0.604029         0.177743
 C         2.441788        -0.261362        -0.956443
 C         2.467255         0.344041        -2.272381
 C         2.279665         1.884931        -1.855897
 C         2.238079         1.788132        -0.358920
 O         2.204698         2.869223         0.391448
 H        -0.691097         0.380479         0.758086
 H        -0.637739        -0.060118        -0.973528
 H         0.087567        -1.135068         0.189386
 H         4.182666         0.621244         0.515886
 H         2.750182        -1.300999        -0.837683
 H         3.367033         0.385002        -2.787045
 H         1.660687         0.070754        -3.008572
 H         3.297326         2.393465        -2.011278
 H         1.501097         2.489530        -2.383360
 H         2.371931         2.525216         1.274059
