19
Iteration:  1292
 C        -0.072769        -0.143600        -0.088951
 C         1.384736         0.421699         0.002409
 O         2.252642         0.219250         1.248027
 C         3.298294         0.575588         0.108360
 C         2.470378        -0.291149        -0.915048
 C         2.302107         0.345719        -2.337415
 C         2.401963         1.894629        -1.839193
 C         2.258586         1.719106        -0.311823
 O         2.165770         2.990062         0.406840
 H        -0.796960         0.413432         0.630655
 H        -0.505605        -0.093795        -1.119352
 H        -0.066652        -1.223744         0.217726
 H         4.344671         0.551045         0.283216
 H         2.426561        -1.435114        -0.773364
 H         3.033208         0.068773        -3.222429
 H         1.412579        -0.115325        -2.852169
 H         3.418799         2.213861        -2.158688
 H         1.569405         2.531766        -2.278850
 H         1.843292         2.635451         1.251526
