19
Iteration:   103
 C         0.032931         0.257424         0.038466
 C         1.444234         0.383180        -0.012954
 O         2.307972         0.073328         1.196659
 C         3.167577         0.551912         0.009854
 C         2.502802        -0.346251        -0.936660
 C         2.613488         0.364321        -2.276539
 C         2.355448         1.845984        -1.846605
 C         2.101948         1.676414        -0.350474
 O         1.921454         2.869459         0.403693
 H        -0.476877         0.923824         0.684269
 H        -0.563642         0.227971        -0.958350
 H        -0.186805        -0.727869         0.412461
 H         4.256941         0.573779         0.147667
 H         2.634444        -1.437072        -0.734605
 H         3.544685         0.153854        -2.809015
 H         1.787017         0.064612        -2.990024
 H         3.212263         2.497800        -1.957127
 H         1.452744         2.382493        -2.374719
 H         1.931459         2.603415         1.342639
