19
Iteration:  1930
 C         0.023315         0.377239         0.041421
 C         1.437021         0.295440        -0.115917
 O         2.284114         0.068932         1.123764
 C         3.218335         0.644444         0.142535
 C         2.547712        -0.268962        -0.926817
 C         2.565333         0.376486        -2.352431
 C         2.239159         1.812383        -1.859277
 C         2.183087         1.675524        -0.350046
 O         2.002684         2.710086         0.501509
 H        -0.450349         0.978863         0.786056
 H        -0.452930         0.680877        -0.841924
 H        -0.544327        -0.532734         0.278326
 H         4.291045         0.849923         0.494087
 H         2.667531        -1.324241        -0.945226
 H         3.490513         0.174098        -2.845805
 H         1.756213        -0.040800        -2.957755
 H         2.910074         2.595934        -2.140048
 H         1.243359         2.090442        -2.284288
 H         1.823627         2.250232         1.367808
