19
Iteration:  4775
 C        -0.038626         0.235276         0.016538
 C         1.499693         0.392379        -0.045237
 O         2.302073         0.076543         1.239079
 C         3.212571         0.599388         0.116785
 C         2.389455        -0.331057        -0.960782
 C         2.553910         0.412535        -2.316227
 C         2.312666         1.889244        -1.881821
 C         2.263598         1.698123        -0.343900
 O         1.918907         2.747321         0.404311
 H        -0.478652         1.185460         0.506426
 H        -0.382292        -0.082992        -0.984439
 H        -0.076156        -0.692257         0.725839
 H         4.354736         0.590145         0.077930
 H         2.614304        -1.393270        -0.763769
 H         3.502613         0.033466        -2.717612
 H         1.851963         0.229638        -3.184062
 H         3.343219         2.509323        -1.970333
 H         1.602663         2.446484        -2.415843
 H         1.693725         2.383330         1.279344
