19
Iteration:   911charge 0 multiplicity 1
 C        -0.077979        -0.084303         0.094770
 C         1.385868         0.239773        -0.036783
 O         2.142399         0.165559         1.168745
 C         3.187653         0.607544         0.122559
 C         2.478093        -0.281364        -0.971977
 C         2.491137         0.515069        -2.338915
 C         2.458920         1.905268        -1.800622
 C         2.295551         1.711240        -0.344728
 O         2.105557         2.904439         0.331641
 H        -0.475331         0.752451         0.788535
 H        -0.633739        -0.001706        -0.780796
 H        -0.376603        -1.094587         0.501170
 H         4.211566         0.402201         0.305565
 H         2.689906        -1.305839        -1.036694
 H         3.203794        -0.014703        -2.912227
 H         1.481153         0.258929        -2.823041
 H         3.312598         2.586024        -1.982342
 H         1.616736         2.425024        -2.181324
 H         2.258294         2.662777         1.288870
