19
Iteration:  3426
 C        -0.061029        -0.043751        -0.097937
 C         1.409358         0.426326        -0.018782
 O         2.266976         0.168823         1.140577
 C         3.246803         0.629775         0.148768
 C         2.469224        -0.296281        -0.914301
 C         2.321421         0.325597        -2.190648
 C         2.384043         1.910259        -1.876065
 C         2.306100         1.762343        -0.326998
 O         2.083147         2.873421         0.399337
 H        -0.923388         0.411506         0.463624
 H        -0.195324         0.160459        -1.150070
 H        -0.113413        -1.107878         0.112084
 H         4.235112         0.740203         0.648963
 H         2.685779        -1.341019        -0.686902
 H         3.023235         0.041877        -2.930860
 H         1.391468        -0.089550        -2.631029
 H         3.489894         2.061069        -2.236658
 H         1.637411         2.465104        -2.371920
 H         2.143757         2.565348         1.326248
