19
Iteration:  2771
 C        -0.069426         0.155715         0.044467
 C         1.369952         0.357923        -0.088217
 O         2.265151         0.141345         1.179099
 C         3.221536         0.524633         0.127012
 C         2.561054        -0.294716        -0.926234
 C         2.576395         0.410150        -2.273415
 C         2.256520         1.868464        -1.908415
 C         2.199913         1.644419        -0.351261
 O         2.102423         2.826947         0.422998
 H        -0.686324         0.948437         0.576130
 H        -0.558738        -0.028947        -0.931978
 H        -0.199125        -0.757297         0.616783
 H         4.245589         0.987628         0.314446
 H         2.582297        -1.441758        -0.877231
 H         3.578190         0.464386        -2.871538
 H         1.820266         0.040079        -2.953626
 H         2.943213         2.654844        -2.259278
 H         1.229075         2.262232        -2.134580
 H         1.666115         2.519524         1.270090
