19
Iteration:  1547
 C        -0.173474         0.253969         0.239608
 C         1.353601         0.348579        -0.011233
 O         2.331751         0.184370         1.152736
 C         3.253601         0.496843         0.045370
 C         2.529225        -0.343978        -1.002221
 C         2.725756         0.430422        -2.318144
 C         2.324177         1.793216        -1.857529
 C         2.182222         1.620704        -0.390809
 O         1.924138         2.804870         0.375887
 H        -0.515331         1.136392         0.822853
 H        -0.812602         0.556038        -0.709762
 H        -0.665781        -0.690607         0.669302
 H         4.260394         0.491274         0.254696
 H         2.764105        -1.439747        -1.066538
 H         3.749085         0.510742        -2.739109
 H         2.199197         0.162403        -3.283419
 H         3.106896         2.594569        -2.042163
 H         1.391970         2.204193        -2.276443
 H         1.972115         2.587721         1.319609
