19
Iteration:  1186
 C        -0.092751         0.350185         0.125534
 C         1.402706         0.350554        -0.012290
 O         2.329329         0.154100         1.202192
 C         3.318588         0.505746         0.083643
 C         2.540092        -0.358131        -0.999917
 C         2.648670         0.422929        -2.372743
 C         2.220808         1.873795        -1.822227
 C         2.246751         1.567645        -0.359677
 O         1.885202         2.763714         0.376465
 H        -0.389923         1.203308         0.684590
 H        -0.436079         0.582748        -0.957242
 H        -0.516284        -0.519403         0.521143
 H         4.345295         0.668247         0.512282
 H         2.623400        -1.492385        -0.810755
 H         3.629457         0.253910        -2.732991
 H         1.923958        -0.038576        -3.166798
 H         2.773898         2.848659        -2.144911
 H         1.255960         1.910826        -2.305620
 H         1.827316         2.483300         1.302501
