19
Iteration:  1771charge 0 multiplicity 1
 C        -0.010492         0.283752         0.000392
 C         1.430678         0.263640        -0.024244
 O         2.286730         0.105763         1.159972
 C         3.222288         0.606617         0.101394
 C         2.584372        -0.344718        -0.949585
 C         2.501920         0.393052        -2.225704
 C         2.270371         1.894669        -1.845500
 C         2.219987         1.686345        -0.371606
 O         1.981171         2.754863         0.407172
 H        -0.527004         0.893884         0.842936
 H        -0.375565         0.543392        -1.044037
 H        -0.502575        -0.642972         0.202189
 H         4.272701         0.879948         0.223183
 H         2.642453        -1.422196        -0.937948
 H         3.428149         0.207465        -2.836603
 H         1.671388         0.051466        -2.819080
 H         3.045796         2.527151        -2.260959
 H         1.417968         2.484636        -2.118769
 H         1.899911         2.443932         1.323750
