19
Iteration:  1312
 C         0.066614        -0.008292        -0.063852
 C         1.425627         0.399734        -0.044194
 O         2.237710         0.160405         1.128361
 C         3.143206         0.622653         0.147116
 C         2.470501        -0.317314        -0.887025
 C         2.328598         0.331128        -2.247960
 C         2.368607         1.835894        -1.850182
 C         2.209922         1.760514        -0.353293
 O         2.120668         2.920596         0.448102
 H        -0.559779         0.645709         0.673544
 H        -0.343621         0.071988        -1.053467
 H         0.080412        -1.113252         0.280905
 H         4.269277         0.738568         0.329060
 H         2.685476        -1.382705        -0.916973
 H         3.142203        -0.040933        -2.957171
 H         1.418492         0.119930        -2.760381
 H         3.261149         2.226441        -2.253649
 H         1.539732         2.355234        -2.416026
 H         2.499007         2.742802         1.316626
