19
Iteration:  1405
 C        -0.034361         0.283875         0.188767
 C         1.408734         0.252408        -0.045999
 O         2.229852         0.137297         1.178958
 C         3.231255         0.606983         0.056242
 C         2.529777        -0.382794        -1.012792
 C         2.689217         0.431866        -2.305004
 C         2.282804         1.820448        -1.831478
 C         2.158003         1.614013        -0.380290
 O         1.948289         2.812789         0.342024
 H        -0.050746         1.111685         0.868860
 H        -0.727482         0.648089        -0.641982
 H        -0.474616        -0.563343         0.720224
 H         4.245166         0.733317         0.223016
 H         2.792179        -1.392823        -0.797077
 H         3.620530         0.434951        -2.904829
 H         1.874793        -0.042641        -2.997068
 H         2.990017         2.695271        -2.032495
 H         1.330497         2.164360        -2.212323
 H         2.245897         2.623399         1.268163
