19
Iteration:  1358
 C         0.018332         0.276832         0.172034
 C         1.444192         0.329474        -0.068858
 O         2.300383         0.157623         1.184696
 C         3.200071         0.529026         0.021892
 C         2.460387        -0.297551        -1.009931
 C         2.641075         0.378871        -2.241713
 C         2.273202         1.810615        -1.850654
 C         2.200140         1.641253        -0.387185
 O         1.937501         2.807862         0.390495
 H        -0.330090         1.154329         0.832549
 H        -0.491522         0.456700        -0.882099
 H        -0.285219        -0.717513         0.531185
 H         4.238676         0.477365         0.254266
 H         2.599530        -1.418688        -0.931285
 H         3.781729         0.284141        -2.533168
 H         2.096776         0.001243        -3.143700
 H         2.878080         2.651576        -2.170971
 H         1.206570         2.058201        -2.186094
 H         1.537362         2.723320         1.266811
