19
Iteration:  4956
 C        -0.087507         0.133508        -0.023456
 C         1.397198         0.367996        -0.100435
 O         2.337421         0.165959         1.147534
 C         3.267378         0.434776         0.106274
 C         2.510442        -0.344175        -0.928516
 C         2.529675         0.419564        -2.252776
 C         2.304232         1.917656        -1.819956
 C         2.227458         1.723659        -0.325213
 O         1.981837         2.848321         0.427989
 H        -0.511233         0.911919         0.583199
 H        -0.522036         0.376335        -1.025680
 H        -0.459843        -0.725689         0.426917
 H         4.241276         0.595847         0.446645
 H         2.647095        -1.479383        -1.006669
 H         3.487381         0.276884        -2.752563
 H         1.884347        -0.126166        -2.904123
 H         2.955633         2.652460        -2.072638
 H         1.260441         2.296801        -2.161056
 H         2.012035         2.302234         1.255862
