19
Iteration:  4849charge 0 multiplicity 1
 C        -0.115949        -0.055841        -0.061060
 C         1.396754         0.456733        -0.028086
 O         2.290411         0.218124         1.225825
 C         3.211791         0.459103         0.023232
 C         2.429519        -0.338764        -0.935484
 C         2.537942         0.389760        -2.290083
 C         2.306157         1.900421        -1.839142
 C         2.199140         1.724051        -0.297470
 O         2.133047         2.928018         0.445773
 H        -0.652990         0.469683         0.728841
 H        -0.375527         0.118768        -1.078307
 H         0.010725        -1.076489         0.025086
 H         4.340187         0.510131         0.221260
 H         2.308825        -1.473382        -0.931680
 H         3.550044         0.277857        -2.743159
 H         1.775697        -0.106270        -2.885389
 H         3.182807         2.462743        -2.142023
 H         1.472256         2.432966        -2.296242
 H         1.915910         2.772571         1.367608
