19
Iteration:  1970charge 0 multiplicity 1
 C        -0.093038         0.060964        -0.006753
 C         1.391327         0.389283        -0.029541
 O         2.290077         0.143429         1.193492
 C         3.246542         0.544523         0.148369
 C         2.364829        -0.294110        -1.002140
 C         2.523565         0.464742        -2.253857
 C         2.268125         1.938119        -1.805026
 C         2.295678         1.637783        -0.334104
 O         2.106210         2.805025         0.353211
 H        -0.601986         0.730106         0.697640
 H        -0.366178         0.288170        -1.162185
 H        -0.198970        -1.102063         0.107316
 H         4.377811         0.504230         0.278434
 H         2.522401        -1.378826        -0.853174
 H         3.607833         0.205755        -2.658074
 H         1.836102         0.284732        -3.066398
 H         3.002784         2.700413        -2.058260
 H         1.212627         2.202070        -2.069526
 H         2.189381         2.639108         1.304408
