19
Iteration:  3887
 C        -0.027995         0.292407        -0.028241
 C         1.474043         0.254704        -0.008358
 O         2.281160         0.123861         1.150943
 C         3.237886         0.574942         0.084947
 C         2.604157        -0.335033        -0.995203
 C         2.559017         0.482814        -2.343427
 C         2.190001         1.829605        -1.719926
 C         2.204204         1.633927        -0.307090
 O         1.925598         2.722732         0.434750
 H        -0.351550         0.983128         0.748029
 H        -0.207473         0.935501        -0.974064
 H        -0.724944        -0.564108        -0.205238
 H         4.316278         0.712476         0.408970
 H         2.782921        -1.385267        -0.815003
 H         3.464426         0.407612        -2.950171
 H         1.666987         0.103540        -3.015360
 H         3.022276         2.564701        -2.116196
 H         1.322058         2.296149        -2.070466
 H         2.388389         2.731446         1.298865
