19
Iteration:   963charge 0 multiplicity 1
 C        -0.037661        -0.044343         0.024697
 C         1.393664         0.394053         0.017679
 O         2.228009         0.184269         1.133068
 C         3.257546         0.490444         0.102700
 C         2.418901        -0.305336        -0.897129
 C         2.446170         0.414838        -2.344508
 C         2.379482         1.936499        -1.855926
 C         2.305177         1.732860        -0.360742
 O         2.063543         2.898247         0.409368
 H        -0.780601         0.509174         0.682483
 H        -0.450144         0.093608        -0.942903
 H        -0.178877        -1.168111         0.235211
 H         4.214585         0.535140         0.504973
 H         2.372009        -1.392187        -0.874995
 H         3.434900         0.228416        -2.671599
 H         1.755940        -0.075224        -3.068384
 H         3.326961         2.517602        -2.038598
 H         1.466964         2.556215        -2.235675
 H         2.101509         2.598260         1.356997
