19
Iteration:  4441charge 0 multiplicity 1
 C        -0.058981         0.091143         0.074803
 C         1.397266         0.333093        -0.108337
 O         2.304637         0.184890         1.160076
 C         3.203836         0.537872         0.155418
 C         2.527808        -0.301737        -0.973360
 C         2.542832         0.333670        -2.344602
 C         2.365956         1.922610        -1.757237
 C         2.176762         1.651079        -0.366021
 O         2.005928         2.878720         0.367034
 H        -0.529725         0.711810         0.824789
 H        -0.686819         0.274765        -0.806270
 H        -0.422586        -0.947183         0.359974
 H         4.239387         0.724945         0.449407
 H         2.493447        -1.363501        -0.840185
 H         3.604728         0.227228        -2.747051
 H         1.755959         0.285667        -3.081828
 H         3.210230         2.526366        -1.817217
 H         1.442143         2.334815        -2.346609
 H         1.947643         2.539196         1.268539
