19
Iteration:  4457
 C        -0.050449         0.027643        -0.002277
 C         1.443461         0.353974        -0.046706
 O         2.161173         0.173761         1.203745
 C         3.243256         0.563878         0.064300
 C         2.530818        -0.326675        -0.906106
 C         2.494063         0.457746        -2.254238
 C         2.349696         1.867293        -1.830571
 C         2.270989         1.662106        -0.300230
 O         2.043643         2.871345         0.330732
 H        -0.496690         0.625316         0.844099
 H        -0.584175         0.297314        -0.942482
 H        -0.127614        -1.012719         0.189905
 H         4.320233         0.542029         0.316258
 H         2.759035        -1.459441        -0.995765
 H         3.207541         0.393771        -3.044868
 H         1.562838         0.005306        -2.670984
 H         3.159582         2.606031        -2.241587
 H         1.517006         2.412640        -2.118648
 H         1.909567         2.741981         1.292233
