19
Iteration:  4245charge 0 multiplicity 1
 C        -0.040469         0.223387         0.122881
 C         1.386294         0.300952        -0.053551
 O         2.370518         0.109513         1.164499
 C         3.163521         0.506974         0.066949
 C         2.443931        -0.352144        -0.953852
 C         2.652760         0.469090        -2.272017
 C         2.325182         1.899961        -1.819213
 C         2.174754         1.675172        -0.369444
 O         1.969892         2.803431         0.330643
 H        -0.479174         0.802913         0.868346
 H        -0.624212         0.370579        -0.805293
 H        -0.483700        -0.853088         0.343125
 H         4.213991         0.698951         0.313227
 H         2.443089        -1.415716        -0.884792
 H         3.687613         0.378100        -2.684045
 H         2.070031         0.186725        -3.156919
 H         3.012339         2.694019        -1.854984
 H         1.390281         2.475339        -2.144608
 H         1.940318         2.512990         1.287313
