19
Iteration:  4032
 C        -0.097515         0.341638        -0.012874
 C         1.442305         0.220064        -0.026221
 O         2.254895         0.140162         1.141040
 C         3.325404         0.588527         0.082466
 C         2.591504        -0.268609        -1.021065
 C         2.528757         0.359123        -2.331953
 C         2.248907         1.890317        -1.766887
 C         2.267601         1.612560        -0.317796
 O         1.954644         2.739064         0.480275
 H        -0.361400         1.176758         0.734490
 H        -0.386674         0.620274        -1.060513
 H        -0.549238        -0.557176         0.117881
 H         4.445600         0.616691         0.278796
 H         3.027909        -1.310333        -0.903192
 H         3.551217         0.254336        -2.751039
 H         1.717642         0.110449        -3.011887
 H         2.781579         2.695956        -2.227807
 H         1.179857         2.086231        -1.787793
 H         1.446414         2.451804         1.272895
