19
Iteration:   490charge 0 multiplicity 1
 C        -0.129258         0.348862         0.123242
 C         1.414521         0.354162        -0.059493
 O         2.301383         0.168051         1.107356
 C         3.187086         0.602081         0.093555
 C         2.596600        -0.291211        -0.920193
 C         2.648574         0.434027        -2.316560
 C         2.228797         1.788666        -1.880040
 C         2.208917         1.601930        -0.360922
 O         1.988227         2.661328         0.452911
 H        -0.443025         1.212092         0.753781
 H        -0.555534         0.575672        -0.829582
 H        -0.442480        -0.571385         0.523692
 H         4.244812         0.704154         0.370212
 H         2.768906        -1.400297        -0.941668
 H         3.684088         0.342909        -2.775698
 H         1.941067        -0.003549        -3.036426
 H         2.937621         2.550484        -2.343777
 H         1.272483         2.065259        -2.339391
 H         1.981983         2.330086         1.368919
