19
Iteration:  4785
 C         0.020362         0.165296         0.020128
 C         1.421683         0.365818        -0.012680
 O         2.249629         0.112842         1.210325
 C         3.232952         0.595447         0.079825
 C         2.480362        -0.297306        -0.982959
 C         2.509799         0.381699        -2.338997
 C         2.365402         1.868261        -1.850964
 C         2.231491         1.640114        -0.303452
 O         1.980181         2.815549         0.413911
 H        -0.558117         1.111419         0.306811
 H        -0.369571        -0.043347        -0.996714
 H        -0.453616        -0.629753         0.630089
 H         4.299448         0.816319         0.412754
 H         2.480825        -1.414833        -0.942132
 H         3.446692         0.366740        -2.878660
 H         1.635748         0.039074        -2.937992
 H         3.240318         2.542653        -2.166442
 H         1.502693         2.336172        -2.201976
 H         1.841895         2.529602         1.327396
