19
Iteration:  2085
 C        -0.052788         0.336155         0.038063
 C         1.505232         0.342599        -0.096101
 O         2.277231         0.001495         1.185881
 C         3.224209         0.605726         0.123019
 C         2.571131        -0.274050        -0.992590
 C         2.577549         0.361797        -2.368245
 C         2.194105         1.871193        -1.885191
 C         2.218999         1.625353        -0.306991
 O         1.981884         2.808576         0.500808
 H        -0.286641         1.246070         0.686139
 H        -0.588296         0.533637        -0.873434
 H        -0.404319        -0.639209         0.328775
 H         4.280402         0.735784         0.356665
 H         2.681154        -1.427042        -0.799623
 H         3.463718         0.285566        -2.887460
 H         1.722270        -0.066202        -3.006289
 H         2.886636         2.687378        -2.215428
 H         1.209953         2.072307        -2.201232
 H         1.917654         2.323089         1.352622
