19
Iteration:  2957
 C        -0.047410         0.238628         0.068720
 C         1.491735         0.299167        -0.056362
 O         2.236209         0.205496         1.206129
 C         3.271415         0.559624         0.175571
 C         2.594828        -0.317834        -0.983160
 C         2.464469         0.392333        -2.347244
 C         2.324885         1.819057        -1.883124
 C         2.232355         1.610238        -0.410891
 O         1.896869         2.799785         0.424002
 H        -0.380261         1.094135         0.749218
 H        -0.494365         0.274186        -0.941717
 H        -0.242416        -0.700874         0.463999
 H         4.279857         0.796394         0.595136
 H         2.641926        -1.439930        -1.107030
 H         3.419301         0.225985        -2.869463
 H         1.717080         0.089588        -3.009691
 H         3.276822         2.422118        -1.938698
 H         1.508659         2.510415        -2.278246
 H         2.038355         2.568991         1.360765
