19
Iteration:  1423
 C        -0.016785         0.190908         0.124836
 C         1.404725         0.332675        -0.012977
 O         2.278520         0.146577         1.176877
 C         3.212474         0.585426         0.128355
 C         2.548113        -0.339890        -0.905638
 C         2.480603         0.405965        -2.327908
 C         2.291272         1.908195        -1.880753
 C         2.201800         1.668356        -0.361777
 O         2.036004         2.773443         0.316589
 H        -0.581067         0.900528         0.801163
 H        -0.477337         0.354586        -0.934140
 H        -0.299812        -0.822456         0.385956
 H         4.276425         0.779764         0.416559
 H         2.685882        -1.452618        -0.923905
 H         3.554240         0.168641        -2.587587
 H         1.773575         0.049013        -3.067812
 H         3.179432         2.476127        -2.101332
 H         1.487802         2.504552        -2.406234
 H         1.788928         2.443810         1.220227
