19
Iteration:  1375charge 0 multiplicity 1
 C        -0.050367         0.349642         0.214716
 C         1.423046         0.453914         0.005838
 O         2.286367         0.020716         1.119413
 C         3.300251         0.548783         0.101363
 C         2.446996        -0.371213        -0.949627
 C         2.745807         0.393092        -2.332335
 C         2.239225         1.824824        -1.976180
 C         2.228516         1.685432        -0.394850
 O         1.854500         2.788638         0.390577
 H        -0.396888         1.067573         0.935665
 H        -0.642992         0.488292        -0.582992
 H        -0.277421        -0.630490         0.704229
 H         4.479284         0.629915         0.313306
 H         2.478720        -1.401567        -0.627986
 H         3.765935         0.511082        -2.512200
 H         2.201386        -0.094630        -3.115968
 H         2.854195         2.680187        -2.353862
 H         1.226070         2.072373        -2.279584
 H         1.938779         2.252932         1.194590
