19
Iteration:  3561
 C        -0.013978         0.155563        -0.081209
 C         1.414432         0.373450         0.012754
 O         2.282208         0.107348         1.181214
 C         3.209162         0.676716         0.045554
 C         2.517744        -0.269260        -0.917677
 C         2.487928         0.313292        -2.285511
 C         2.336249         1.870975        -1.862311
 C         2.208880         1.694599        -0.330357
 O         2.019314         2.815462         0.505971
 H        -0.602340         0.978157         0.207592
 H        -0.175218         0.002936        -1.161493
 H        -0.410242        -0.836464         0.312221
 H         4.346252         0.656176         0.101834
 H         2.600695        -1.369838        -0.845749
 H         3.201500         0.012383        -3.041756
 H         1.631548        -0.170679        -2.720377
 H         3.170602         2.465216        -2.146065
 H         1.376189         2.397860        -2.218670
 H         2.000070         2.462848         1.419803
