19
Iteration:   437
 C        -0.156381         0.080302         0.079215
 C         1.405144         0.419480        -0.049222
 O         2.366955         0.013678         1.157360
 C         3.232462         0.604011         0.202199
 C         2.440466        -0.280552        -0.910415
 C         2.492393         0.351844        -2.356082
 C         2.377942         1.931294        -1.838657
 C         2.248425         1.708045        -0.370064
 O         2.020048         2.901749         0.350311
 H        -0.780414         0.718145         0.757372
 H        -0.601400         0.188092        -0.957596
 H        -0.164569        -0.952388         0.356153
 H         4.288711         0.696759         0.467152
 H         2.518475        -1.486760        -0.936270
 H         3.424447         0.095099        -2.810951
 H         1.697188        -0.046133        -3.082827
 H         3.372676         2.303810        -2.146024
 H         1.625120         2.532954        -2.263704
 H         1.831521         2.677091         1.279456
