19
Iteration:  3717
 C        -0.026343         0.302076        -0.054636
 C         1.445494         0.334895        -0.084592
 O         2.320741         0.042649         1.156531
 C         3.247263         0.580816         0.103459
 C         2.585268        -0.287570        -0.897692
 C         2.544757         0.380967        -2.290001
 C         2.256684         1.853157        -1.895232
 C         2.182616         1.696673        -0.347013
 O         1.923843         2.771545         0.546478
 H        -0.475909         0.968358         0.769677
 H        -0.454135         0.644701        -1.023062
 H        -0.400801        -0.663848         0.082091
 H         4.308747         0.694280         0.348982
 H         2.551408        -1.388909        -0.759348
 H         3.438436         0.263773        -2.981302
 H         1.691698         0.016195        -2.832687
 H         2.960392         2.467661        -2.413304
 H         1.288397         2.297006        -2.425213
 H         2.237090         2.479185         1.449750
