19
Iteration:  1980charge 0 multiplicity 1
 C         0.000215        -0.009415        -0.022571
 C         1.392414         0.379451        -0.004125
 O         2.289672         0.125883         1.193814
 C         3.173250         0.552980         0.177055
 C         2.368355        -0.322398        -1.022991
 C         2.502401         0.431217        -2.320860
 C         2.303482         1.963710        -1.819142
 C         2.181676         1.654358        -0.323862
 O         2.210738         2.873480         0.365648
 H        -0.649381         0.538947         0.684964
 H        -0.628775         0.240440        -0.987789
 H        -0.333070        -0.998087         0.390840
 H         4.202862         0.638759         0.574384
 H         2.500324        -1.436232        -0.912685
 H         3.575805         0.404895        -2.793002
 H         1.811095         0.071191        -3.093057
 H         3.137040         2.699992        -1.965966
 H         1.401454         2.538193        -2.166910
 H         1.808175         2.656655         1.223716
