19
Iteration:  2642charge 0 multiplicity 1
 C        -0.041843         0.321138         0.105049
 C         1.416610         0.301800        -0.059940
 O         2.317793         0.098315         1.108136
 C         3.254350         0.500955         0.079688
 C         2.544203        -0.338019        -0.937359
 C         2.626882         0.321338        -2.295885
 C         2.335320         1.929499        -1.915231
 C         2.146360         1.683997        -0.355814
 O         1.816906         2.798894         0.483574
 H        -0.323088         1.152758         0.892462
 H        -0.561524         0.581386        -0.868187
 H        -0.489555        -0.577788         0.457505
 H         4.350087         0.348156         0.244072
 H         2.635574        -1.481550        -0.873062
 H         3.642763         0.249145        -2.753893
 H         1.945163        -0.112413        -3.036008
 H         3.266101         2.562312        -1.981185
 H         1.479953         2.526914        -2.365310
 H         2.394275         2.883638         1.238549
