19
Iteration:  4106
 C        -0.079366        -0.030314         0.126288
 C         1.382819         0.367118        -0.069467
 O         2.222188         0.048222         1.170630
 C         3.144868         0.568296         0.126763
 C         2.485464        -0.280327        -0.966738
 C         2.571966         0.496872        -2.316474
 C         2.374569         1.984226        -1.857943
 C         2.131514         1.688605        -0.364065
 O         2.159827         2.855714         0.361397
 H        -0.308115         0.534379         1.041656
 H        -0.756021         0.140527        -0.761109
 H        -0.143270        -1.114120         0.390736
 H         4.228295         0.522544         0.428072
 H         2.674778        -1.358638        -1.016820
 H         3.446713         0.191348        -2.886220
 H         1.701291         0.072838        -2.918573
 H         3.438604         2.520202        -1.811527
 H         1.702018         2.636872        -2.401667
 H         1.647621         3.000793         1.148370
