19
Iteration:  3747charge 0 multiplicity 1
 C        -0.051609         0.024049        -0.040718
 C         1.427708         0.296117        -0.007348
 O         2.241969         0.179482         1.196465
 C         3.180798         0.572313         0.086830
 C         2.498957        -0.289499        -0.911792
 C         2.429300         0.511256        -2.351984
 C         2.383115         1.906375        -1.758104
 C         2.281665         1.658201        -0.293323
 O         2.069451         2.826903         0.382184
 H        -0.722650         0.695421         0.484143
 H        -0.330599         0.005616        -1.165224
 H        -0.211353        -1.016240         0.167802
 H         4.292485         0.533961         0.320166
 H         2.495442        -1.369976        -0.827136
 H         3.240442         0.300074        -3.023537
 H         1.555378         0.283504        -2.947504
 H         3.215816         2.505267        -2.194809
 H         1.516151         2.535269        -2.170087
 H         2.055766         2.425909         1.290458
