19
Iteration:  2271
 C        -0.053333         0.250437         0.017089
 C         1.433566         0.346465        -0.184778
 O         2.223131         0.191294         1.150191
 C         3.264132         0.571700         0.169630
 C         2.588744        -0.358447        -0.945487
 C         2.612259         0.415256        -2.274344
 C         2.084868         1.895620        -1.818107
 C         2.227789         1.634908        -0.384633
 O         2.085439         2.697959         0.431712
 H        -0.113128         1.216912         0.760110
 H        -0.860875         0.498932        -0.728500
 H        -0.311221        -0.661760         0.522559
 H         4.304729         0.531935         0.550356
 H         2.601985        -1.556443        -0.826938
 H         3.599674         0.645868        -2.493419
 H         2.106823        -0.030420        -3.250398
 H         2.811781         2.667309        -2.207400
 H         1.099318         2.027858        -2.092626
 H         1.816639         2.498844         1.367077
