19
Iteration:  3660
 C        -0.094691         0.179883         0.198279
 C         1.406533         0.322485        -0.005262
 O         2.239133         0.087233         1.133295
 C         3.267002         0.444207         0.085020
 C         2.469229        -0.267994        -0.986539
 C         2.728790         0.459761        -2.307855
 C         2.267845         1.933320        -1.876977
 C         2.224744         1.681593        -0.375520
 O         1.923089         2.820854         0.368692
 H        -0.497298         0.672055         1.069709
 H        -0.565325         0.597232        -0.741970
 H        -0.351294        -0.896840         0.212641
 H         4.320881         0.653071         0.366021
 H         2.437640        -1.353480        -1.047958
 H         3.818999         0.355171        -2.478852
 H         2.201229         0.055264        -3.149859
 H         3.093430         2.561643        -2.079704
 H         1.253918         2.285311        -2.314947
 H         2.338783         2.642636         1.225672
