19
Iteration:  1360
 C         0.018283         0.287308         0.183778
 C         1.454764         0.344859        -0.060566
 O         2.288548         0.135429         1.178648
 C         3.206770         0.535557         0.011286
 C         2.451386        -0.285951        -0.985253
 C         2.667266         0.375840        -2.242278
 C         2.247419         1.810750        -1.852928
 C         2.218833         1.655911        -0.386784
 O         1.924589         2.792011         0.386101
 H        -0.282009         1.113313         0.818213
 H        -0.493258         0.457918        -0.872526
 H        -0.261506        -0.674397         0.537045
 H         4.199419         0.494600         0.203025
 H         2.556525        -1.394374        -0.974261
 H         3.762237         0.216268        -2.520231
 H         2.119280         0.019908        -3.203224
 H         2.926152         2.653566        -2.206496
 H         1.229754         2.010853        -2.245978
 H         1.542554         2.712549         1.290291
