19
Iteration:  2263
 C        -0.046440         0.251490         0.018713
 C         1.415806         0.299966        -0.185357
 O         2.231453         0.201221         1.146010
 C         3.274466         0.524006         0.159646
 C         2.571890        -0.353245        -0.922876
 C         2.607537         0.410020        -2.247853
 C         2.118452         1.931405        -1.807769
 C         2.242452         1.614307        -0.381770
 O         2.054460         2.742004         0.427987
 H        -0.105093         1.040935         0.758925
 H        -0.652332         0.431898        -0.933388
 H        -0.384798        -0.618415         0.585305
 H         4.254541         0.830841         0.506136
 H         2.484150        -1.506641        -1.197380
 H         3.619055         0.500930        -2.639283
 H         2.009275        -0.176738        -3.013034
 H         2.726858         2.791094        -2.204699
 H         1.113971         2.151685        -2.159730
 H         2.038272         2.466054         1.387578
