19
Iteration:   581
 C        -0.053837        -0.069694         0.018542
 C         1.382019         0.406051        -0.017788
 O         2.223663         0.041346         1.154152
 C         3.196991         0.648064         0.137187
 C         2.426199        -0.203309        -0.888054
 C         2.442664         0.352581        -2.335410
 C         2.509247         1.891833        -1.882248
 C         2.213178         1.796410        -0.385175
 O         2.103894         2.899766         0.418142
 H        -0.546507         0.471784         0.792815
 H        -0.693838        -0.000742        -0.900412
 H         0.040440        -1.100436         0.353904
 H         4.237901         0.798646         0.431813
 H         2.488378        -1.427785        -0.710160
 H         3.049152        -0.078420        -3.056176
 H         1.374174         0.118130        -2.803932
 H         3.414674         2.416318        -2.139628
 H         1.744865         2.510150        -2.340217
 H         2.140397         2.521784         1.318811
