19
Iteration:  2347charge 0 multiplicity 1
 C        -0.011929         0.031183         0.079545
 C         1.414081         0.279368        -0.034738
 O         2.203848         0.152349         1.151677
 C         3.279350         0.504204         0.212914
 C         2.503515        -0.296425        -0.907964
 C         2.397224         0.472829        -2.419476
 C         2.485381         1.905473        -1.877878
 C         2.210989         1.705644        -0.361771
 O         2.029181         2.900082         0.392528
 H        -0.555091         0.802667         0.765973
 H        -0.623784         0.251567        -0.792144
 H        -0.094645        -0.975316         0.384092
 H         4.285513         0.388038         0.670008
 H         2.680458        -1.381199        -0.901161
 H         3.050588         0.211266        -3.233615
 H         1.289727         0.350034        -2.823642
 H         3.521202         2.390948        -1.854337
 H         1.785221         2.495503        -2.453231
 H         1.478704         2.546402         1.111482
