19
Iteration:   305
 C         0.047004         0.345810         0.128736
 C         1.473772         0.383054        -0.123650
 O         2.223793         0.036529         1.175390
 C         3.268560         0.527222         0.079856
 C         2.505651        -0.327969        -0.988705
 C         2.652815         0.385358        -2.298556
 C         2.231832         1.797414        -1.833105
 C         2.221004         1.705587        -0.339225
 O         1.877530         2.845782         0.401018
 H        -0.279760         1.128532         0.915846
 H        -0.668702         0.487326        -0.654861
 H        -0.185444        -0.668429         0.574222
 H         4.305436         0.270483         0.303071
 H         2.730031        -1.393762        -0.861494
 H         3.677670         0.388318        -2.770991
 H         1.981465        -0.069110        -3.036517
 H         2.960345         2.486825        -2.260213
 H         1.412001         2.164508        -2.312392
 H         1.521373         2.433159         1.243463
