19
Iteration:  2793
 C         0.025505         0.291389         0.106085
 C         1.452400         0.300410        -0.037145
 O         2.243457         0.071096         1.146116
 C         3.241959         0.620782         0.107608
 C         2.576384        -0.313662        -1.004542
 C         2.525679         0.363943        -2.305419
 C         2.321749         1.851023        -1.882220
 C         2.218541         1.700514        -0.346582
 O         1.855492         2.798172         0.416352
 H        -0.359120         1.270923         0.557701
 H        -0.496755         0.217236        -0.868819
 H        -0.399132        -0.472990         0.708504
 H         4.301649         0.314780         0.433501
 H         2.840518        -1.407566        -0.777348
 H         3.596209         0.156858        -2.775832
 H         1.811874         0.015653        -3.022153
 H         3.163447         2.518614        -2.135358
 H         1.376657         2.397653        -2.183253
 H         2.114600         2.448482         1.276301
