19
Iteration:   172charge 0 multiplicity 1
 C        -0.138967         0.150473         0.049044
 C         1.373187         0.295928        -0.037476
 O         2.284397         0.081720         1.197539
 C         3.219793         0.580552         0.150889
 C         2.511626        -0.328460        -0.926349
 C         2.604317         0.378615        -2.340817
 C         2.318690         1.860857        -1.978760
 C         2.230407         1.748153        -0.372491
 O         2.026259         2.910221         0.469245
 H        -0.505328         0.978993         0.816689
 H        -0.541422         0.250053        -0.977129
 H        -0.441568        -0.909009         0.421998
 H         4.269219         0.657039         0.532327
 H         2.725762        -1.356652        -0.831242
 H         3.547142         0.088686        -2.956284
 H         1.800797        -0.003293        -2.932404
 H         3.053524         2.732364        -2.247849
 H         1.398458         2.119710        -2.491053
 H         2.180434         2.483111         1.339432
