19
Iteration:  3397
 C        -0.041484         0.060282        -0.090753
 C         1.422086         0.263305        -0.026084
 O         2.277255         0.210827         1.306058
 C         3.238772         0.589079         0.083506
 C         2.465250        -0.362175        -0.959554
 C         2.467915         0.390251        -2.268212
 C         2.270340         1.922230        -1.826383
 C         2.195153         1.682072        -0.276534
 O         2.135533         2.892735         0.350434
 H        -0.688752         0.858666         0.192363
 H        -0.329404         0.062420        -1.155830
 H        -0.441693        -0.991712         0.361550
 H         4.298696         0.776735         0.524336
 H         2.743717        -1.491855        -0.933287
 H         3.241818         0.179757        -3.099034
 H         1.657414         0.002295        -2.921525
 H         3.130834         2.429989        -2.076971
 H         1.397659         2.342035        -2.455329
 H         2.059330         2.781937         1.305927
