19
Iteration:  1191
 C        -0.073903         0.372203         0.157400
 C         1.444022         0.331103        -0.013579
 O         2.339692         0.193061         1.183699
 C         3.264744         0.476021         0.073971
 C         2.565357        -0.392455        -1.019518
 C         2.660638         0.423045        -2.359217
 C         2.231297         1.880368        -1.828982
 C         2.220281         1.559523        -0.339507
 O         1.884525         2.756105         0.357089
 H        -0.378627         1.325187         0.699523
 H        -0.403778         0.528280        -0.859728
 H        -0.717763        -0.556803         0.453076
 H         4.247409         0.687850         0.518484
 H         2.544359        -1.439428        -0.923815
 H         3.756294         0.266857        -2.651860
 H         1.970414         0.193476        -3.102655
 H         2.692119         2.785371        -2.049945
 H         1.167273         1.955276        -2.179836
 H         1.676997         2.406599         1.263496
