19
Iteration:  2935charge 0 multiplicity 1
 C        -0.037257         0.022923        -0.024659
 C         1.405655         0.380333        -0.054798
 O         2.235050         0.094651         1.154587
 C         3.201883         0.586149         0.112021
 C         2.489938        -0.289915        -0.857555
 C         2.524612         0.351997        -2.275793
 C         2.286014         1.881351        -1.891016
 C         2.262475         1.699282        -0.388435
 O         2.096262         2.929558         0.421218
 H        -0.560007         0.740940         0.686954
 H        -0.508957         0.148878        -1.013474
 H        -0.179609        -0.939949         0.352718
 H         4.267486         0.585462         0.446709
 H         2.737908        -1.338415        -0.513863
 H         3.485451         0.125923        -2.761802
 H         1.753429         0.138500        -2.943235
 H         2.893425         2.742022        -2.268387
 H         1.197400         2.130370        -2.140386
 H         1.902576         2.838553         1.371031
