19
Iteration:  3406
 C        -0.038839         0.025553        -0.180822
 C         1.447262         0.304952        -0.018511
 O         2.300863         0.180293         1.335634
 C         3.192575         0.672526         0.105913
 C         2.485627        -0.311547        -0.937554
 C         2.385725         0.387990        -2.329659
 C         2.338774         1.834337        -1.837200
 C         2.113968         1.667813        -0.291769
 O         2.170148         2.904992         0.377003
 H        -0.624629         0.732410         0.408336
 H        -0.240415        -0.004013        -1.224072
 H        -0.252886        -0.996112         0.302832
 H         4.320600         0.663738         0.228907
 H         2.561485        -1.352476        -0.596503
 H         3.198210         0.103992        -3.006113
 H         1.397985         0.206243        -2.761910
 H         3.302592         2.348521        -1.981356
 H         1.519510         2.350076        -2.348971
 H         2.070426         2.752103         1.326389
