19
Iteration:  4644
 C        -0.089574         0.051128        -0.089517
 C         1.431714         0.306269        -0.051798
 O         2.209102         0.227112         1.174024
 C         3.217684         0.669144         0.178237
 C         2.543337        -0.293093        -0.977671
 C         2.416789         0.360337        -2.360285
 C         2.308356         1.778280        -1.810602
 C         2.274794         1.733137        -0.359714
 O         2.138846         2.846885         0.491972
 H        -0.697969         0.588592         0.715858
 H        -0.491033         0.186545        -1.090714
 H        -0.214254        -1.009009         0.094879
 H         4.231984         0.822507         0.559068
 H         2.720147        -1.370238        -0.904230
 H         3.215755         0.095751        -3.004155
 H         1.429023        -0.051242        -2.645789
 H         3.258290         2.403488        -2.138179
 H         1.587049         2.448428        -2.155620
 H         2.046164         2.587905         1.439254
