19
Iteration:   910
 C        -0.073514        -0.070955         0.093776
 C         1.383383         0.239623        -0.045537
 O         2.144778         0.167700         1.175769
 C         3.184587         0.593542         0.115041
 C         2.477952        -0.280150        -0.968830
 C         2.488792         0.511005        -2.334013
 C         2.467308         1.894649        -1.803765
 C         2.300902         1.713859        -0.349157
 O         2.094879         2.902034         0.337088
 H        -0.463944         0.768246         0.805012
 H        -0.617760        -0.004094        -0.798018
 H        -0.355239        -1.112649         0.506814
 H         4.195294         0.433577         0.322669
 H         2.719803        -1.315833        -1.057085
 H         3.193003         0.041027        -2.901139
 H         1.481715         0.261962        -2.850133
 H         3.283980         2.630770        -1.984346
 H         1.570977         2.428346        -2.164140
 H         2.291139         2.682276         1.290189
