19
Iteration:  2956charge 0 multiplicity 1
 C        -0.047638         0.233393         0.067944
 C         1.498169         0.295419        -0.059801
 O         2.233420         0.201454         1.206868
 C         3.261543         0.560187         0.179133
 C         2.590582        -0.316846        -0.986362
 C         2.468902         0.390279        -2.339700
 C         2.314973         1.815706        -1.885132
 C         2.237540         1.627865        -0.402230
 O         1.903791         2.809972         0.423464
 H        -0.368950         1.100200         0.748039
 H        -0.481132         0.255507        -0.953914
 H        -0.229288        -0.751312         0.446950
 H         4.269429         0.783981         0.581166
 H         2.620061        -1.448866        -1.138470
 H         3.415859         0.231509        -2.876582
 H         1.709698         0.055736        -3.023633
 H         3.303378         2.423605        -1.956868
 H         1.504928         2.490560        -2.274310
 H         2.053154         2.545463         1.345466
