19
Iteration:   945charge 0 multiplicity 1
 C        -0.001695        -0.120890         0.011303
 C         1.342959         0.481442        -0.055389
 O         2.256504         0.075223         1.185620
 C         3.107854         0.608501         0.093994
 C         2.384249        -0.275461        -0.989557
 C         2.485481         0.398618        -2.294968
 C         2.452171         1.865256        -1.829072
 C         2.193477         1.742704        -0.301281
 O         2.182626         2.977540         0.419865
 H        -0.659454         0.334017         0.822383
 H        -0.525151        -0.111694        -0.951950
 H         0.186681        -1.118492         0.419804
 H         4.219704         0.539959         0.115231
 H         2.477080        -1.327482        -0.853460
 H         3.349199        -0.047937        -2.905418
 H         1.529352         0.253670        -2.878147
 H         3.394477         2.338169        -2.090172
 H         1.672323         2.308022        -2.326426
 H         1.645194         2.739897         1.211401
