19
Iteration:  3122
 C        -0.026934         0.175737         0.057814
 C         1.427085         0.372641        -0.045680
 O         2.298109         0.157579         1.202195
 C         3.197993         0.614379         0.114465
 C         2.620090        -0.283955        -0.961002
 C         2.461342         0.323678        -2.299743
 C         2.349852         1.904265        -1.843085
 C         2.171099         1.639543        -0.338548
 O         1.975089         2.756378         0.355491
 H        -0.491708         0.771284         0.903518
 H        -0.492935         0.449878        -0.895956
 H        -0.326399        -0.868426         0.218775
 H         4.252261         0.851439         0.384832
 H         2.848429        -1.323982        -0.890125
 H         3.302476         0.204705        -3.029301
 H         1.643155        -0.040641        -2.856660
 H         3.306615         2.456430        -1.939522
 H         1.554489         2.537938        -2.352549
 H         1.514324         2.523265         1.192815
