19
Iteration:  2137
 C        -0.119075         0.121059         0.010326
 C         1.416334         0.402693         0.032742
 O         2.374794         0.096274         1.176352
 C         3.150380         0.557770         0.075806
 C         2.409432        -0.284948        -0.951350
 C         2.619160         0.446708        -2.362030
 C         2.278986         1.852888        -1.857088
 C         2.182709         1.655003        -0.366099
 O         2.097311         2.833712         0.464364
 H        -0.680851         0.817956         0.728627
 H        -0.473650         0.343814        -0.984248
 H        -0.247977        -0.942053         0.366350
 H         4.209435         0.673204         0.427144
 H         2.465014        -1.290997        -0.851988
 H         3.696419         0.358473        -2.641416
 H         2.050175         0.199074        -3.269020
 H         3.034258         2.527853        -2.158736
 H         1.283706         2.167739        -2.258240
 H         1.746052         2.394197         1.273782
