19
Iteration:  4381charge 0 multiplicity 1
 C        -0.059770         0.238600         0.112787
 C         1.450242         0.311397        -0.137145
 O         2.240101         0.177498         1.298273
 C         3.214713         0.499590         0.129785
 C         2.578732        -0.318883        -0.993944
 C         2.583059         0.462889        -2.315395
 C         2.251548         1.851459        -1.849884
 C         2.232984         1.655915        -0.395200
 O         1.958591         2.733071         0.372705
 H        -0.246887         1.224658         0.631857
 H        -0.496528         0.246085        -0.912814
 H        -0.219594        -0.622067         0.695100
 H         4.283097         0.724079         0.301395
 H         2.708612        -1.443101        -1.124717
 H         3.519152         0.605497        -2.802390
 H         1.984029         0.083112        -3.173238
 H         3.000521         2.693281        -2.144080
 H         1.375268         2.238713        -2.243075
 H         1.778229         2.405461         1.296888
