19
Iteration:   213
 C         0.023694        -0.072444        -0.045458
 C         1.457222         0.410137         0.007532
 O         2.221640         0.182972         1.268500
 C         3.205095         0.424754         0.193693
 C         2.442752        -0.351169        -0.950240
 C         2.439642         0.404351        -2.306248
 C         2.352194         1.919462        -1.867761
 C         2.188112         1.771683        -0.396774
 O         2.123709         2.964436         0.379252
 H        -0.603249         0.555622         0.517000
 H        -0.219257         0.059499        -1.158619
 H        -0.027280        -1.112372         0.188272
 H         4.289623         0.410998         0.431779
 H         2.295658        -1.421145        -0.945482
 H         3.172524         0.100699        -3.104620
 H         1.460782         0.248290        -2.768972
 H         3.173679         2.568441        -2.216870
 H         1.528613         2.506592        -2.385740
 H         1.988459         2.793693         1.339001
