19
Iteration:  1323
 C        -0.064322         0.054991         0.002021
 C         1.411518         0.358130         0.003907
 O         2.231496         0.144452         1.226671
 C         3.225556         0.643353         0.108222
 C         2.518429        -0.233344        -0.932877
 C         2.396711         0.382032        -2.258794
 C         2.384846         1.886369        -1.933564
 C         2.230191         1.674791        -0.361240
 O         2.081747         2.809042         0.374543
 H        -0.714581         0.731587         0.706086
 H        -0.428468         0.155490        -1.013232
 H        -0.287043        -1.039406         0.322835
 H         4.363893         0.666913         0.365161
 H         2.768265        -1.287891        -0.784690
 H         3.269867         0.151175        -2.959510
 H         1.533366        -0.057000        -2.681859
 H         3.194691         2.499486        -2.243808
 H         1.378443         2.329207        -2.185069
 H         2.559625         2.546009         1.192791
