19
Iteration:  2995
 C        -0.019986         0.318015         0.107683
 C         1.432099         0.331403        -0.040126
 O         2.393313         0.144385         1.140855
 C         3.309230         0.582444         0.108648
 C         2.474033        -0.375589        -0.985336
 C         2.528664         0.361318        -2.318065
 C         2.479001         1.868478        -1.961158
 C         2.137572         1.680560        -0.313136
 O         1.728451         2.770557         0.474058
 H        -0.298305         1.188511         0.628399
 H        -0.607410         0.386598        -0.791618
 H        -0.469095        -0.571162         0.707982
 H         4.335393         0.749767         0.426018
 H         2.702293        -1.417318        -1.016270
 H         3.544719         0.104180        -2.615987
 H         1.824551        -0.070161        -3.119257
 H         3.443182         2.269132        -2.161752
 H         1.764346         2.363377        -2.553337
 H         1.605541         2.300947         1.344588
