19
Iteration:  3664charge 0 multiplicity 1
 C        -0.054658         0.208224         0.172278
 C         1.396434         0.316127        -0.017976
 O         2.258748         0.093006         1.154409
 C         3.260664         0.418485         0.091771
 C         2.491151        -0.273174        -0.974929
 C         2.718325         0.467681        -2.296501
 C         2.232846         1.944063        -1.867087
 C         2.205584         1.692453        -0.430167
 O         1.917883         2.803050         0.364687
 H        -0.511406         0.701664         1.111112
 H        -0.532638         0.671567        -0.697407
 H        -0.407311        -0.788809         0.253039
 H         4.298206         0.416720         0.377659
 H         2.611090        -1.378703        -1.072580
 H         3.844969         0.311462        -2.364121
 H         2.131440         0.060975        -3.134050
 H         3.045459         2.696891        -1.957756
 H         1.316580         2.242623        -2.358118
 H         2.253524         2.583118         1.272006
