19
Iteration:  2704charge 0 multiplicity 1
 C        -0.098196        -0.072047         0.017100
 C         1.427191         0.305831        -0.048367
 O         2.191096         0.163251         1.168569
 C         3.194022         0.620879         0.133071
 C         2.528842        -0.317722        -0.912064
 C         2.422044         0.404148        -2.398952
 C         2.428006         1.892967        -1.866585
 C         2.249787         1.672540        -0.295445
 O         2.138604         2.979525         0.434025
 H        -0.519886         0.554558         0.749971
 H        -0.462840         0.350100        -0.897926
 H        -0.338214        -1.150867         0.265939
 H         4.277942         0.727230         0.402885
 H         2.502711        -1.405110        -0.865426
 H         3.284553        -0.021549        -3.040705
 H         1.466773         0.084471        -2.811836
 H         3.248770         2.510692        -2.265283
 H         1.505062         2.355362        -2.176006
 H         1.830865         2.781070         1.322252
