19
Iteration:  1067
 C        -0.066646         0.095729         0.115532
 C         1.401171         0.284273        -0.057485
 O         2.242377         0.100537         1.202658
 C         3.210240         0.584010         0.074987
 C         2.520526        -0.294665        -0.925426
 C         2.542762         0.406920        -2.326405
 C         2.391995         1.954100        -1.863193
 C         2.164613         1.708808        -0.359205
 O         2.056382         2.812107         0.359585
 H        -0.432332         0.922059         0.736146
 H        -0.737369         0.289304        -0.862780
 H        -0.474143        -0.783001         0.589964
 H         4.346737         0.748078         0.385881
 H         2.737674        -1.415605        -0.853968
 H         3.440191         0.301424        -2.911523
 H         1.695697         0.103150        -2.913021
 H         3.148864         2.698613        -2.113789
 H         1.524491         2.220647        -2.377307
 H         1.882555         2.582844         1.286738
