19
Iteration:   721charge 0 multiplicity 1
 C        -0.009584         0.106048         0.010299
 C         1.433156         0.369787        -0.032143
 O         2.262707         0.119704         1.149401
 C         3.245664         0.609157         0.140217
 C         2.441807        -0.242934        -0.959112
 C         2.480119         0.351660        -2.325905
 C         2.331230         1.828807        -1.903376
 C         2.187354         1.733080        -0.297510
 O         2.069631         2.830280         0.483445
 H        -0.579418         0.786094         0.626163
 H        -0.454958         0.236292        -1.064457
 H        -0.257811        -0.908225         0.290961
 H         4.329450         0.743833         0.366239
 H         2.562630        -1.386667        -0.805232
 H         3.446645         0.179943        -2.792189
 H         1.739289        -0.056714        -3.102517
 H         3.317893         2.299760        -2.193160
 H         1.592666         2.529116        -2.402533
 H         1.557351         2.455557         1.236160
