19
Iteration:  2387charge 0 multiplicity 1
 C        -0.066310         0.001475         0.013928
 C         1.384382         0.401773        -0.035942
 O         2.278901         0.195275         1.166274
 C         3.190332         0.588974         0.118232
 C         2.454152        -0.352667        -0.901345
 C         2.444435         0.432536        -2.304304
 C         2.429257         1.882636        -1.869075
 C         2.208896         1.695007        -0.387704
 O         2.055379         2.832164         0.433684
 H        -0.631277         0.679301         0.630295
 H        -0.286948         0.190645        -1.040828
 H        -0.317835        -1.088349         0.214982
 H         4.288645         0.537130         0.211040
 H         2.619396        -1.375265        -0.713440
 H         3.314523         0.172834        -3.010048
 H         1.573642         0.204895        -2.809211
 H         3.424102         2.285397        -1.852204
 H         1.758739         2.701838        -2.343363
 H         2.249731         2.602683         1.378538
