19
Iteration:   949
 C        -0.009286        -0.117496         0.022551
 C         1.365472         0.461970        -0.051159
 O         2.244269         0.095813         1.173242
 C         3.160032         0.594699         0.096157
 C         2.341253        -0.246164        -0.993003
 C         2.496471         0.345509        -2.291719
 C         2.435477         1.877635        -1.822107
 C         2.206698         1.759726        -0.291389
 O         2.160998         2.961384         0.420639
 H        -0.591161         0.350580         0.755667
 H        -0.457503        -0.073253        -1.026978
 H         0.153156        -1.127674         0.354998
 H         4.299157         0.477533         0.148035
 H         2.374388        -1.356876        -0.753068
 H         3.416276         0.024902        -3.044659
 H         1.604218         0.277732        -2.878112
 H         3.362704         2.389599        -2.092738
 H         1.596887         2.426976        -2.368703
 H         1.691982         2.737674         1.244278
