19
Iteration:  3821charge 0 multiplicity 1
 C        -0.085348         0.039304         0.086512
 C         1.368310         0.338614        -0.124978
 O         2.320113         0.153219         1.204443
 C         3.161381         0.478671         0.119532
 C         2.456216        -0.336474        -0.945312
 C         2.617857         0.526579        -2.311242
 C         2.330441         1.961283        -1.868732
 C         2.186905         1.667211        -0.354390
 O         2.021161         2.817029         0.426488
 H        -0.374410         0.903726         0.637782
 H        -0.604137         0.153845        -0.898165
 H        -0.416078        -0.968776         0.518461
 H         4.260051         0.574086         0.267273
 H         2.678134        -1.374018        -1.031272
 H         3.527582         0.599102        -2.875302
 H         1.770576         0.240415        -3.049698
 H         3.362893         2.468519        -1.989704
 H         1.565070         2.507636        -2.313956
 H         2.223799         2.411057         1.294761
