19
Iteration:  3211
 C        -0.052453         0.023318         0.077557
 C         1.384942         0.500954        -0.085284
 O         2.203160         0.114395         1.225766
 C         3.220610         0.613085         0.108988
 C         2.529501        -0.287601        -0.958958
 C         2.558848         0.401270        -2.326173
 C         2.217856         1.786295        -1.893564
 C         2.233160         1.686314        -0.386632
 O         2.147231         2.864125         0.450713
 H        -0.660372         0.787620         0.510165
 H        -0.484791        -0.002039        -0.885870
 H        -0.245179        -0.916016         0.719402
 H         4.284565         0.833016         0.369487
 H         2.770383        -1.322404        -0.783233
 H         3.579355         0.291191        -2.763018
 H         2.042601         0.088328        -3.188326
 H         2.953323         2.432396        -2.249676
 H         1.213685         2.051453        -2.397323
 H         1.719533         2.563448         1.285582
