19
Iteration:  3741charge 0 multiplicity 1
 C        -0.037039         0.085475        -0.084719
 C         1.429788         0.279755        -0.034760
 O         2.280602         0.198207         1.208456
 C         3.230192         0.564109         0.132931
 C         2.488976        -0.322152        -0.978760
 C         2.423078         0.433470        -2.329871
 C         2.361454         1.931991        -1.744467
 C         2.199526         1.675041        -0.319210
 O         2.044770         2.808957         0.414659
 H        -0.666001         0.768400         0.555910
 H        -0.387822         0.167151        -1.091694
 H        -0.264957        -0.980842         0.189260
 H         4.258076         0.478626         0.423951
 H         2.749288        -1.408507        -0.939797
 H         3.341669         0.318273        -2.979211
 H         1.558548         0.227489        -3.004687
 H         3.186323         2.496371        -2.187568
 H         1.510298         2.552072        -2.103144
 H         2.242994         2.638279         1.347542
