19
Iteration:   566
 C        -0.025313        -0.041726         0.014331
 C         1.431684         0.254250        -0.037791
 O         2.233216         0.160541         1.185731
 C         3.151116         0.591813         0.155743
 C         2.490685        -0.306161        -0.982993
 C         2.372034         0.433227        -2.290867
 C         2.402691         1.880198        -1.841054
 C         2.200318         1.706710        -0.335596
 O         2.151936         2.956010         0.385013
 H        -0.590518         0.698918         0.622750
 H        -0.310625         0.176584        -1.024375
 H        -0.336446        -1.036812         0.278304
 H         4.210317         0.618959         0.477689
 H         2.651942        -1.342617        -1.046636
 H         3.325482         0.190636        -2.894159
 H         1.457648         0.171476        -2.821792
 H         3.456483         2.292843        -1.938715
 H         1.674334         2.500945        -2.415541
 H         1.907880         2.791702         1.320194
