19
Iteration:  2821charge 0 multiplicity 1
 C        -0.078701         0.342157         0.080785
 C         1.436485         0.358059        -0.084797
 O         2.433588         0.129233         1.225777
 C         3.279713         0.560700         0.105366
 C         2.519645        -0.363530        -0.998068
 C         2.567649         0.367828        -2.310297
 C         2.415087         1.905071        -1.840447
 C         2.167573         1.628783        -0.328842
 O         1.756397         2.713001         0.344751
 H        -0.471098         1.128980         0.675811
 H        -0.547573         0.476381        -0.901937
 H        -0.466780        -0.562161         0.713568
 H         4.310992         0.428227         0.361740
 H         2.528994        -1.417370        -0.869909
 H         3.356908         0.091586        -2.972481
 H         1.567176         0.336143        -2.868248
 H         3.254180         2.698604        -1.897764
 H         1.573566         2.471933        -2.208523
 H         2.051109         2.419120         1.220880
