19
Iteration:   486
 C        -0.103836         0.345578         0.136586
 C         1.421364         0.340729        -0.061411
 O         2.317374         0.178036         1.119596
 C         3.157275         0.577388         0.148754
 C         2.602572        -0.325430        -0.933764
 C         2.604811         0.466491        -2.318865
 C         2.236401         1.805154        -1.896917
 C         2.228071         1.603462        -0.406820
 O         1.977198         2.662231         0.432997
 H        -0.380924         1.211543         0.754852
 H        -0.541224         0.559788        -0.844136
 H        -0.535774        -0.634344         0.534554
 H         4.185202         0.618752         0.530922
 H         2.732182        -1.348350        -0.865237
 H         3.669235         0.421943        -2.722202
 H         2.038686         0.069663        -3.133454
 H         2.966115         2.538951        -2.256818
 H         1.260113         2.125544        -2.355315
 H         2.019736         2.368742         1.372008
