19
Iteration:  4397
 C        -0.031010         0.264502         0.145962
 C         1.390230         0.378479        -0.125181
 O         2.289930         0.192783         1.103254
 C         3.222321         0.558363         0.121125
 C         2.526631        -0.394715        -0.991405
 C         2.682108         0.408461        -2.346851
 C         2.306149         1.882662        -1.870006
 C         2.190497         1.659740        -0.361636
 O         1.897907         2.750642         0.459267
 H        -0.411671         1.037172         0.861152
 H        -0.713157         0.230950        -0.699817
 H        -0.187408        -0.715912         0.758023
 H         4.259652         0.529338         0.451780
 H         2.659086        -1.441998        -0.833489
 H         3.783912         0.257400        -2.615896
 H         1.946727        -0.055696        -3.005817
 H         3.109095         2.520774        -2.086787
 H         1.205405         2.221197        -2.183357
 H         1.784508         2.377404         1.350405
