19
Iteration:  1058
 C        -0.059791         0.186741         0.105450
 C         1.415140         0.283347        -0.009252
 O         2.235995         0.136088         1.208966
 C         3.207404         0.526445         0.056270
 C         2.544185        -0.317105        -0.975876
 C         2.592189         0.455453        -2.262433
 C         2.315977         1.916997        -1.853814
 C         2.227397         1.608828        -0.390974
 O         1.971756         2.824722         0.357758
 H        -0.312662         1.021717         0.744917
 H        -0.577859         0.349622        -0.921788
 H        -0.448124        -0.713276         0.619129
 H         4.369399         0.589317         0.021338
 H         2.836542        -1.390414        -1.023115
 H         3.586439         0.268182        -2.873372
 H         1.803797         0.180824        -2.938808
 H         3.127634         2.552843        -2.103588
 H         1.385683         2.408938        -2.046955
 H         1.878584         2.570232         1.291551
