19
Iteration:  3177charge 0 multiplicity 1
 C        -0.083810         0.246171         0.205798
 C         1.378836         0.316898        -0.111658
 O         2.338431         0.120966         1.188170
 C         3.239989         0.529134         0.098066
 C         2.490980        -0.352083        -0.976470
 C         2.647332         0.444709        -2.275842
 C         2.339937         1.866017        -1.864553
 C         2.206247         1.621390        -0.388068
 O         1.848560         2.799916         0.318667
 H        -0.187451         1.255569         0.673588
 H        -0.625333         0.133063        -0.709075
 H        -0.302659        -0.532547         0.941479
 H         4.336994         0.690957         0.260934
 H         2.712395        -1.376315        -0.916103
 H         3.698137         0.549980        -2.565175
 H         1.985159         0.301395        -3.065417
 H         3.092521         2.600265        -1.946515
 H         1.425287         2.246762        -2.384802
 H         2.117869         2.465259         1.217685
