19
Iteration:  4467charge 0 multiplicity 1
 C         0.018401         0.047794        -0.036424
 C         1.437257         0.331430         0.020211
 O         2.169132         0.125476         1.218580
 C         3.224372         0.549336         0.188957
 C         2.530723        -0.277237        -0.888313
 C         2.389019         0.384229        -2.298971
 C         2.317878         1.944559        -1.895602
 C         2.312675         1.705635        -0.418093
 O         2.067079         2.890343         0.366694
 H        -0.663652         0.377326         0.714825
 H        -0.499990         0.225948        -1.019141
 H        -0.081742        -0.995095         0.047091
 H         4.278767         0.620124         0.548194
 H         2.893417        -1.390160        -0.899361
 H         3.278492         0.269262        -2.874374
 H         1.477675         0.183121        -2.884953
 H         3.278212         2.499799        -2.209406
 H         1.397651         2.349205        -2.236862
 H         1.983935         2.526896         1.260309
