19
Iteration:  2142charge 0 multiplicity 1
 C        -0.128175         0.095978         0.040898
 C         1.424877         0.413593         0.053061
 O         2.344976         0.100401         1.139936
 C         3.157020         0.565231         0.067272
 C         2.415827        -0.265609        -1.001400
 C         2.587807         0.431539        -2.312600
 C         2.311577         1.837342        -1.861211
 C         2.187041         1.695543        -0.373680
 O         2.095503         2.835838         0.487509
 H        -0.749807         0.669128         0.700336
 H        -0.416316         0.278628        -1.025937
 H        -0.287767        -0.914995         0.334994
 H         4.216423         0.597091         0.257172
 H         2.636905        -1.441759        -0.872532
 H         3.639324         0.341672        -2.573152
 H         2.024337         0.032059        -3.191152
 H         3.161747         2.540537        -2.161802
 H         1.414874         2.211437        -2.335542
 H         1.729804         2.568752         1.352670
