19
Iteration:  2677
 C        -0.036367         0.136252         0.059550
 C         1.457599         0.365165        -0.055542
 O         2.283811         0.104950         1.158744
 C         3.256704         0.558303         0.158020
 C         2.501823        -0.257784        -0.881993
 C         2.441899         0.413233        -2.344768
 C         2.421969         1.935936        -1.840704
 C         2.198507         1.633821        -0.351473
 O         1.949451         2.802199         0.317725
 H        -0.453405         0.769049         0.941016
 H        -0.608110         0.506420        -0.838751
 H        -0.244592        -0.930385         0.255605
 H         4.302057         0.495448         0.413014
 H         2.482946        -1.376567        -0.846533
 H         3.277584         0.109450        -2.925382
 H         1.450017         0.051766        -2.793880
 H         3.549420         2.343492        -1.825016
 H         1.754765         2.762024        -2.266313
 H         1.738181         2.478838         1.209754
