19
Iteration:   630
 C        -0.060872         0.187599         0.143603
 C         1.386044         0.341942        -0.043588
 O         2.247952         0.135569         1.215488
 C         3.182151         0.571215         0.089823
 C         2.495405        -0.357936        -0.943299
 C         2.575345         0.485067        -2.324553
 C         2.341683         1.930222        -1.885985
 C         2.223824         1.646081        -0.388128
 O         2.038528         2.717774         0.381203
 H        -0.593005         0.941600         0.820563
 H        -0.461801         0.332881        -0.864291
 H        -0.252005        -0.890699         0.422895
 H         4.267536         0.756017         0.242341
 H         2.670801        -1.349660        -0.910192
 H         3.625686         0.288043        -2.792764
 H         1.969567         0.167743        -3.081101
 H         3.217384         2.604702        -2.145415
 H         1.477026         2.395304        -2.407562
 H         1.657298         2.588145         1.265329
