19
Iteration:    94
 C        -0.066334         0.147660         0.022656
 C         1.433635         0.356311        -0.046260
 O         2.272847         0.057340         1.129481
 C         3.240528         0.674161         0.101465
 C         2.444446        -0.342276        -0.925700
 C         2.525256         0.344367        -2.280344
 C         2.407531         1.856128        -1.822043
 C         2.229588         1.703329        -0.305911
 O         1.960048         2.871371         0.382073
 H        -0.385556         0.957053         0.760928
 H        -0.470574         0.291286        -1.064258
 H        -0.157392        -0.837814         0.512366
 H         4.333274         0.821964         0.264024
 H         2.630117        -1.396880        -0.762342
 H         3.498136         0.105650        -2.838272
 H         1.693391         0.092979        -2.951437
 H         3.133613         2.641554        -2.211928
 H         1.439550         2.075196        -2.278522
 H         1.867630         2.655463         1.326836
