19
Iteration:  2901charge 0 multiplicity 1
 C        -0.029603        -0.121456        -0.044323
 C         1.361285         0.298972         0.008081
 O         2.240418         0.225108         1.271761
 C         3.073811         0.517489         0.137941
 C         2.424833        -0.316289        -0.900925
 C         2.551948         0.462797        -2.330722
 C         2.251893         1.904402        -1.894370
 C         2.192919         1.696735        -0.294065
 O         2.256804         2.965230         0.311331
 H        -0.564899         0.497132         0.712599
 H        -0.359618         0.157555        -1.059430
 H        -0.124342        -1.195530        -0.021422
 H         4.156386         0.552032         0.325700
 H         2.718903        -1.420733        -0.803085
 H         3.593557         0.294418        -2.642167
 H         1.933117         0.200704        -3.156528
 H         2.993589         2.781202        -2.064671
 H         1.219367         2.218903        -2.172899
 H         2.438595         2.707287         1.245476
