19
Iteration:   493
 C        -0.133472         0.358112         0.113185
 C         1.399428         0.359347        -0.059474
 O         2.280040         0.153893         1.117288
 C         3.238314         0.617507         0.045941
 C         2.581403        -0.269775        -0.932374
 C         2.693649         0.388106        -2.311233
 C         2.228175         1.796210        -1.873437
 C         2.186627         1.620334        -0.333544
 O         1.994922         2.674465         0.472009
 H        -0.459665         1.169841         0.763511
 H        -0.622412         0.569470        -0.921020
 H        -0.414760        -0.598213         0.545356
 H         4.304882         0.790907         0.222773
 H         2.806819        -1.509434        -0.967000
 H         3.617769         0.298021        -2.777832
 H         1.842650        -0.101231        -2.982608
 H         2.871807         2.537344        -2.319389
 H         1.257668         2.017231        -2.277014
 H         1.954276         2.274449         1.366209
