19
Iteration:  4404charge 0 multiplicity 1
 C        -0.092068         0.217826         0.176901
 C         1.424124         0.379448        -0.085409
 O         2.241371         0.146799         1.099829
 C         3.295876         0.571869         0.062951
 C         2.468498        -0.330170        -0.949546
 C         2.694262         0.355070        -2.318893
 C         2.353666         1.875701        -1.873723
 C         2.175281         1.712965        -0.397300
 O         1.885306         2.752833         0.474532
 H        -0.277656         1.126687         0.845363
 H        -0.598734         0.299712        -0.774093
 H        -0.190104        -0.721783         0.704274
 H         4.363777         0.615701         0.324236
 H         2.696306        -1.412993        -0.920025
 H         3.693184         0.270609        -2.755912
 H         2.048530        -0.111343        -3.101618
 H         3.000361         2.780554        -2.105671
 H         1.406639         2.171538        -2.269356
 H         1.874858         2.336601         1.348996
