19
Iteration:  1477charge 0 multiplicity 1
 C        -0.013782        -0.069872        -0.088800
 C         1.372617         0.326956         0.016596
 O         2.246330         0.213845         1.285833
 C         3.195187         0.621414         0.137147
 C         2.542237        -0.256979        -0.886998
 C         2.354464         0.464841        -2.279814
 C         2.321201         1.851842        -1.884780
 C         2.160977         1.720716        -0.397196
 O         2.218298         2.830588         0.348404
 H        -0.669783         0.598792         0.511933
 H        -0.361909         0.088500        -1.127480
 H        -0.148646        -1.075284         0.222597
 H         4.317467         0.744067         0.490969
 H         2.471924        -1.367389        -0.817406
 H         3.076878         0.018390        -2.981269
 H         1.462081         0.151605        -2.747498
 H         3.234807         2.368983        -2.068855
 H         1.566698         2.489084        -2.434029
 H         2.311648         2.515166         1.282818
