19
Iteration:  4391charge 0 multiplicity 1
 C        -0.003735         0.280504         0.140076
 C         1.411727         0.356524        -0.157103
 O         2.307227         0.215458         1.162492
 C         3.130387         0.528099         0.139609
 C         2.597186        -0.376818        -1.017412
 C         2.648567         0.442215        -2.324552
 C         2.234226         1.865641        -1.856288
 C         2.240367         1.605703        -0.348781
 O         1.915519         2.750947         0.430048
 H        -0.468409         1.027184         0.774352
 H        -0.773330         0.159240        -0.673180
 H        -0.210488        -0.608021         0.636973
 H         4.187401         0.559129         0.492845
 H         2.568585        -1.504329        -0.832768
 H         3.654335         0.372111        -2.643009
 H         1.959426         0.146118        -3.145378
 H         3.178690         2.443444        -2.203093
 H         1.392654         2.278899        -2.273280
 H         1.729215         2.384902         1.344057
