19
Iteration:   724
 C        -0.011888         0.087590         0.012217
 C         1.424261         0.374594        -0.026800
 O         2.243236         0.122614         1.120216
 C         3.274011         0.605298         0.155000
 C         2.428976        -0.232654        -0.939042
 C         2.475076         0.359925        -2.332971
 C         2.345008         1.849168        -1.925686
 C         2.191853         1.716189        -0.314315
 O         2.074098         2.828427         0.492795
 H        -0.575238         0.771240         0.641160
 H        -0.398919         0.231165        -0.960362
 H        -0.180643        -0.984074         0.313992
 H         4.304546         0.782960         0.371716
 H         2.544121        -1.351135        -0.665167
 H         3.431800         0.177410        -2.787667
 H         1.677773        -0.088045        -3.102156
 H         3.333170         2.225209        -2.166641
 H         1.625438         2.531203        -2.362382
 H         1.520700         2.512628         1.240250
