19
Iteration:  4484
 C        -0.013035        -0.033586        -0.132031
 C         1.456986         0.395707        -0.089634
 O         2.301937         0.157597         1.220445
 C         3.200293         0.643238         0.224432
 C         2.452417        -0.288943        -0.897787
 C         2.416926         0.346369        -2.308287
 C         2.328579         1.834517        -1.911366
 C         2.211924         1.714845        -0.279074
 O         2.114052         2.898650         0.436571
 H        -0.535252         0.625956         0.611058
 H        -0.446427         0.373452        -1.078656
 H        -0.345103        -1.151806        -0.083420
 H         4.243358         0.677208         0.536240
 H         2.332055        -1.333821        -0.894752
 H         3.245604         0.239394        -3.129763
 H         1.456729        -0.087693        -2.651764
 H         3.107831         2.426319        -2.291054
 H         1.434997         2.477397        -2.318382
 H         2.095333         2.655303         1.388688
