19
Iteration:  1264charge 0 multiplicity 1
 C        -0.014701        -0.032342         0.061055
 C         1.405593         0.295386        -0.021268
 O         2.231895         0.172643         1.200413
 C         3.205243         0.617882         0.140936
 C         2.429344        -0.360265        -0.892112
 C         2.462201         0.422598        -2.282601
 C         2.367050         1.998902        -1.825620
 C         2.198773         1.685282        -0.421376
 O         2.132204         2.880521         0.302012
 H        -0.443219         0.663374         0.720940
 H        -0.479245         0.140269        -0.940468
 H        -0.226149        -1.055428         0.355159
 H         4.317283         0.726350         0.399090
 H         2.415734        -1.451305        -0.859990
 H         3.311185         0.235094        -2.883571
 H         1.556879         0.046578        -2.812480
 H         3.314758         2.497256        -2.144476
 H         1.562915         2.487690        -2.314244
 H         2.089648         2.478496         1.201798
