19
Iteration:   434charge 0 multiplicity 1
 C        -0.160137         0.069142         0.050226
 C         1.384216         0.382382        -0.045885
 O         2.359352         0.006441         1.196576
 C         3.231311         0.635415         0.186344
 C         2.452069        -0.284351        -0.919559
 C         2.469508         0.354941        -2.361038
 C         2.385093         1.954345        -1.882680
 C         2.255157         1.699881        -0.352462
 O         2.039532         2.900874         0.359129
 H        -0.720335         0.682035         0.787385
 H        -0.611337         0.109919        -0.870148
 H        -0.248773        -0.988898         0.361947
 H         4.297293         0.737941         0.444987
 H         2.464908        -1.309306        -0.924895
 H         3.474965        -0.013605        -2.825278
 H         1.713799        -0.028301        -2.956393
 H         3.459389         2.296073        -2.118864
 H         1.594200         2.595924        -2.341045
 H         1.875891         2.805439         1.320086
