19
Iteration:  3352
 C        -0.038728         0.280759         0.184809
 C         1.447635         0.355735        -0.044697
 O         2.230289         0.151279         1.133373
 C         3.148859         0.534504         0.105685
 C         2.548868        -0.373635        -1.052143
 C         2.730970         0.351324        -2.325332
 C         2.267995         1.818232        -1.951909
 C         2.175141         1.662524        -0.402969
 O         1.949760         2.867496         0.518966
 H        -0.400829         1.182927         0.723999
 H        -0.595623         0.251239        -0.730762
 H        -0.211891        -0.638834         0.903715
 H         4.239417         0.835631         0.262916
 H         2.493152        -1.482794        -0.995373
 H         3.817960         0.184707        -2.592532
 H         2.315032        -0.117880        -3.223495
 H         2.941004         2.624410        -2.221099
 H         1.232689         2.095384        -2.191591
 H         1.802599         2.355631         1.332570
