19
Iteration:  4298charge 0 multiplicity 1
 C        -0.001431        -0.001402        -0.005040
 C         1.436439         0.325634        -0.121489
 O         2.129439         0.244085         1.234598
 C         3.239060         0.579498         0.119090
 C         2.512818        -0.309038        -0.942423
 C         2.401319         0.434004        -2.296369
 C         2.403117         1.950297        -1.851823
 C         2.240099         1.700817        -0.334409
 O         2.101160         2.778364         0.378279
 H        -0.402119         0.429340         0.924051
 H        -0.679114         0.068008        -0.829747
 H        -0.086986        -1.109511         0.377087
 H         4.289958         0.653507         0.406911
 H         2.675482        -1.370301        -0.901177
 H         3.275735         0.200858        -3.003058
 H         1.443813         0.133962        -2.746060
 H         3.305222         2.503390        -1.959957
 H         1.492886         2.552939        -2.355952
 H         2.103893         2.569728         1.338064
