19
Iteration:  2751
 C        -0.131293        -0.061468        -0.018694
 C         1.434062         0.336413        -0.012239
 O         2.240822         0.249568         1.221201
 C         3.202799         0.562315         0.091691
 C         2.378492        -0.309631        -0.949991
 C         2.596919         0.352541        -2.343759
 C         2.219745         1.920800        -1.817431
 C         2.278825         1.745134        -0.342684
 O         2.174429         2.876261         0.414725
 H        -0.728587         0.735786         0.584053
 H        -0.422522         0.034861        -1.086189
 H        -0.270646        -0.972349         0.465002
 H         4.268406         0.359974         0.430228
 H         2.663416        -1.410883        -0.986544
 H         3.682460         0.380824        -2.717016
 H         1.947127         0.112728        -3.191370
 H         2.881300         2.653052        -2.084485
 H         1.284642         2.209191        -2.331437
 H         2.183465         2.480989         1.333085
