19
Iteration:  3831charge 0 multiplicity 1
 C        -0.032724         0.165212         0.030955
 C         1.439017         0.341401        -0.095300
 O         2.289111         0.151520         1.228878
 C         3.230852         0.517165         0.034007
 C         2.483512        -0.359830        -1.051760
 C         2.597343         0.437943        -2.326843
 C         2.314571         1.916788        -1.767370
 C         2.158522         1.716555        -0.345031
 O         1.965082         2.803576         0.477118
 H        -0.400314         0.838128         0.776634
 H        -0.537803         0.325133        -0.925921
 H        -0.292160        -0.855714         0.525748
 H         4.299301         0.523052         0.279198
 H         2.518363        -1.442982        -1.029263
 H         3.610149         0.190396        -2.670752
 H         1.864485         0.115742        -3.176648
 H         3.167352         2.642942        -2.124496
 H         1.406704         2.264917        -2.207008
 H         1.888751         2.438989         1.383658
