19
Iteration:  2961
 C        -0.035737         0.266538         0.066602
 C         1.459090         0.318907        -0.045696
 O         2.251268         0.214743         1.200838
 C         3.299791         0.564576         0.158729
 C         2.600117        -0.332427        -0.968874
 C         2.470286         0.402181        -2.363604
 C         2.357617         1.847894        -1.874236
 C         2.208931         1.564206        -0.417357
 O         1.875528         2.758756         0.417091
 H        -0.402786         1.031243         0.702274
 H        -0.546443         0.357159        -0.890377
 H        -0.358959        -0.681828         0.603810
 H         4.285785         0.794066         0.584372
 H         2.747204        -1.387407        -0.950056
 H         3.423675         0.219777        -2.875759
 H         1.603422         0.122586        -3.025907
 H         3.223102         2.435093        -1.946519
 H         1.569716         2.485274        -2.268630
 H         1.988475         2.604175         1.379429
