19
Iteration:  2531charge 0 multiplicity 1
 C        -0.011565        -0.063556        -0.001664
 C         1.390992         0.404409        -0.057751
 O         2.170824         0.145031         1.173025
 C         3.191017         0.576157         0.177883
 C         2.531806        -0.287973        -0.883723
 C         2.346116         0.420380        -2.299557
 C         2.510005         1.921946        -1.829706
 C         2.241001         1.704272        -0.406666
 O         2.036467         2.854382         0.360638
 H        -0.320011         0.671667         0.808115
 H        -0.541464         0.141691        -0.935194
 H        -0.154572        -1.123089         0.241273
 H         4.296429         0.586966         0.450272
 H         2.628404        -1.388986        -0.799080
 H         3.043546         0.094933        -3.142790
 H         1.354828         0.325250        -2.624890
 H         3.484894         2.394943        -1.984337
 H         1.781859         2.682406        -2.229317
 H         2.596763         2.661510         1.159166
