19
Iteration:   861charge 0 multiplicity 1
 C        -0.074136         0.332280         0.003807
 C         1.445436         0.327858        -0.007718
 O         2.342573         0.137013         1.178912
 C         3.187078         0.598283         0.028356
 C         2.532138        -0.408923        -0.989916
 C         2.579225         0.392556        -2.281487
 C         2.270499         1.870189        -1.850781
 C         2.240588         1.658014        -0.323758
 O         1.955307         2.757512         0.520355
 H        -0.466992         1.120708         0.605492
 H        -0.394363         0.502071        -1.126129
 H        -0.562182        -0.591552         0.255018
 H         4.333751         0.735264         0.144348
 H         2.789734        -1.513835        -0.860105
 H         3.647744         0.243946        -2.764260
 H         1.970205        -0.007764        -3.038087
 H         2.938054         2.481818        -2.534694
 H         1.198852         2.128331        -2.256590
 H         1.498878         2.485736         1.323214
