19
Iteration:  4884charge 0 multiplicity 1
 C        -0.024068         0.167682         0.138990
 C         1.444582         0.321746        -0.024075
 O         2.168210         0.137463         1.152812
 C         3.184903         0.572096         0.122819
 C         2.584278        -0.299897        -1.012451
 C         2.574638         0.411290        -2.366002
 C         2.358393         1.880731        -1.885091
 C         2.194136         1.648662        -0.332897
 O         1.978321         2.814122         0.410376
 H        -0.523040         0.524470         1.074250
 H        -0.602297         0.695114        -0.615013
 H        -0.451676        -0.874815         0.156468
 H         4.277814         0.861531         0.340552
 H         2.616422        -1.389292        -0.938627
 H         3.535831         0.220749        -2.909917
 H         1.797636        -0.076024        -3.025046
 H         3.359689         2.431868        -2.081468
 H         1.586932         2.495186        -2.183170
 H         2.137808         2.599871         1.341982
