19
Iteration:  1944
 C        -0.065831         0.254013        -0.012129
 C         1.452082         0.394613        -0.036102
 O         2.274733         0.115960         1.166228
 C         3.253287         0.504686         0.114853
 C         2.557507        -0.364755        -1.029709
 C         2.578074         0.336577        -2.320022
 C         2.179987         1.879136        -1.904159
 C         2.198454         1.678612        -0.334084
 O         1.990686         2.847053         0.558655
 H        -0.277277         1.020034         0.743251
 H        -0.407558         0.603323        -0.953722
 H        -0.340766        -0.745652         0.127283
 H         4.260809         0.509343         0.373765
 H         2.710756        -1.440260        -0.814886
 H         3.535858         0.317222        -2.806139
 H         1.845516        -0.059681        -3.089203
 H         3.011722         2.599875        -2.211978
 H         1.211040         2.194162        -2.283551
 H         2.243777         2.540394         1.446621
