19
Iteration:   823charge 0 multiplicity 1
 C        -0.002618         0.309544         0.034810
 C         1.455570         0.370257        -0.018825
 O         2.209277         0.079193         1.179666
 C         3.215966         0.537235         0.084363
 C         2.564361        -0.358357        -0.960884
 C         2.619504         0.407653        -2.298770
 C         2.190743         1.855858        -1.887862
 C         2.322665         1.652503        -0.370321
 O         1.909747         2.798074         0.463044
 H        -0.515462         1.045026         0.710750
 H        -0.357815         0.498671        -0.922288
 H        -0.361100        -0.743090         0.230956
 H         4.215485         0.601579         0.399556
 H         2.741589        -1.427130        -1.068989
 H         3.587435         0.389306        -2.795056
 H         1.761223         0.003645        -2.983356
 H         2.832658         2.678826        -2.180295
 H         1.152222         2.018536        -2.009976
 H         2.527679         2.740457         1.216870
