19
Iteration:  1348
 C        -0.059125         0.213769         0.106164
 C         1.413430         0.300761        -0.056676
 O         2.342925         0.226347         1.183323
 C         3.220851         0.513448         0.127742
 C         2.509412        -0.421434        -0.983969
 C         2.576485         0.424135        -2.337969
 C         2.284985         1.853709        -1.843057
 C         2.162202         1.630837        -0.339845
 O         2.005619         2.862932         0.371768
 H        -0.411177         1.002125         0.822608
 H        -0.599879         0.387669        -0.930858
 H        -0.423758        -0.715224         0.520612
 H         4.230809         0.580628         0.317930
 H         2.740664        -1.530298        -0.889009
 H         3.662651         0.489186        -2.734808
 H         1.869085        -0.044266        -3.097789
 H         3.030750         2.637930        -2.120834
 H         1.279861         2.244441        -2.150249
 H         1.635409         2.480103         1.180383
