19
Iteration:  2077
 C        -0.044032         0.327518        -0.025394
 C         1.393315         0.317225        -0.092289
 O         2.371775         0.011891         1.209922
 C         3.193078         0.586746         0.084954
 C         2.531912        -0.208001        -0.989955
 C         2.531411         0.373413        -2.294511
 C         2.273305         1.832790        -1.878353
 C         2.240525         1.689596        -0.330444
 O         1.976685         2.773712         0.492514
 H        -0.241772         1.017699         0.785512
 H        -0.821018         0.427571        -0.822928
 H        -0.281600        -0.614922         0.447759
 H         4.229742         0.692045         0.321214
 H         2.740214        -1.383555        -0.903632
 H         3.547289         0.160084        -2.746483
 H         1.723963         0.065336        -3.003723
 H         3.031628         2.612328        -2.264402
 H         1.273940         2.235598        -2.168140
 H         1.679061         2.325655         1.297875
