19
Iteration:  1966charge 0 multiplicity 1
 C        -0.115486         0.086535        -0.013915
 C         1.404055         0.371809        -0.039678
 O         2.284035         0.141508         1.193765
 C         3.256184         0.527009         0.107400
 C         2.387277        -0.292587        -0.936028
 C         2.543633         0.490861        -2.276983
 C         2.256950         1.899042        -1.790508
 C         2.321527         1.670183        -0.335107
 O         2.072047         2.797316         0.366300
 H        -0.637129         0.742475         0.685564
 H        -0.335644         0.272810        -1.026371
 H        -0.137703        -0.944879         0.046768
 H         4.294759         0.495613         0.211004
 H         2.495154        -1.423631        -0.947178
 H         3.515541         0.237315        -2.615748
 H         1.805302         0.233134        -3.086720
 H         2.984970         2.700397        -2.169809
 H         1.245628         2.155236        -2.076225
 H         2.308550         2.620503         1.307830
