19
Iteration:   588
 C        -0.081217        -0.070392         0.060424
 C         1.382670         0.476664        -0.066280
 O         2.222920         0.057642         1.149787
 C         3.177241         0.647625         0.108817
 C         2.443828        -0.271333        -0.872692
 C         2.424838         0.385201        -2.328064
 C         2.505915         1.899824        -1.921371
 C         2.272790         1.722074        -0.371036
 O         2.070168         2.894159         0.437970
 H        -0.722783         0.373247         0.856464
 H        -0.665157        -0.018402        -0.895418
 H         0.075490        -1.102562         0.311220
 H         4.258787         0.722287         0.345735
 H         2.571189        -1.282670        -0.588085
 H         3.278326         0.056597        -3.063372
 H         1.441693         0.144795        -2.720787
 H         3.538533         2.365341        -2.087418
 H         1.698461         2.508394        -2.401556
 H         2.207756         2.677295         1.388530
