19
Iteration:  2418charge 0 multiplicity 1
 C        -0.112132         0.160410         0.018439
 C         1.401518         0.343726        -0.054413
 O         2.271044         0.119320         1.183228
 C         3.219162         0.603036         0.141898
 C         2.443379        -0.338880        -0.935892
 C         2.650292         0.446257        -2.317158
 C         2.200842         1.838429        -1.835991
 C         2.245242         1.635151        -0.348775
 O         2.087486         2.834233         0.396324
 H        -0.526493         0.991563         0.506868
 H        -0.453461         0.397093        -1.012776
 H        -0.419523        -0.891514         0.369106
 H         4.300546         0.615912         0.280856
 H         2.584231        -1.407309        -0.756761
 H         3.719447         0.337167        -2.700309
 H         1.985314         0.160846        -3.111101
 H         2.823194         2.647030        -2.126337
 H         1.154939         2.056602        -2.174873
 H         2.401946         2.718992         1.306051
