19
Iteration:  4953
 C        -0.056013         0.168332        -0.018832
 C         1.399941         0.361843        -0.097272
 O         2.349977         0.179123         1.160748
 C         3.239745         0.404987         0.108522
 C         2.506002        -0.344222        -0.941451
 C         2.557427         0.411386        -2.262214
 C         2.288821         1.911162        -1.819160
 C         2.223316         1.686533        -0.319112
 O         1.949836         2.858242         0.426699
 H        -0.444723         0.923504         0.676457
 H        -0.429809         0.443421        -1.092457
 H        -0.402604        -0.797310         0.481130
 H         4.268841         0.574859         0.328874
 H         2.531567        -1.398060        -1.047335
 H         3.521845         0.354433        -2.769687
 H         1.791357        -0.073945        -2.949329
 H         3.034384         2.707085        -2.061291
 H         1.373009         2.271800        -2.207151
 H         1.936395         2.340153         1.306247
