19
Iteration:  4703charge 0 multiplicity 1
 C        -0.147657         0.140389         0.063817
 C         1.424371         0.339829        -0.038328
 O         2.188148         0.078564         1.158215
 C         3.254389         0.553391         0.061748
 C         2.527209        -0.342584        -0.936126
 C         2.622591         0.392187        -2.290674
 C         2.314888         1.863050        -1.886201
 C         2.218153         1.730211        -0.317372
 O         2.067030         2.931305         0.407200
 H        -0.446384         0.602244         0.968272
 H        -0.608199         0.551083        -0.858857
 H        -0.098215        -0.971990         0.222217
 H         4.289207         0.492735         0.422711
 H         2.728251        -1.411088        -0.871616
 H         3.545603         0.233474        -2.910088
 H         1.870356         0.007551        -3.012091
 H         2.976427         2.650729        -2.129561
 H         1.218921         2.116289        -2.158267
 H         1.760913         2.600354         1.266421
