19
Iteration:  3038
 C        -0.114908         0.000635         0.063006
 C         1.408220         0.223149        -0.089021
 O         2.232497         0.178072         1.154963
 C         3.227903         0.551268         0.176725
 C         2.563060        -0.323519        -0.885378
 C         2.561638         0.447238        -2.274294
 C         2.218583         1.943237        -1.867861
 C         2.208920         1.711829        -0.374560
 O         2.163513         2.883761         0.312763
 H        -0.473644         0.776829         0.667496
 H        -0.689859         0.109972        -0.841455
 H        -0.449318        -0.984341         0.595068
 H         4.268213         0.482653         0.513936
 H         2.600740        -1.377792        -0.728429
 H         3.544111         0.555138        -2.695011
 H         1.766504         0.127690        -2.973259
 H         3.051956         2.571680        -2.029260
 H         1.305973         2.378453        -2.308615
 H         1.751282         2.867600         1.195933
