19
Iteration:  3763
 C        -0.045002        -0.129708        -0.021387
 C         1.368331         0.435346        -0.027261
 O         2.203841         0.100141         1.198806
 C         3.258218         0.529066         0.147618
 C         2.407085        -0.276098        -0.978643
 C         2.434233         0.436451        -2.278305
 C         2.436933         1.998405        -1.849105
 C         2.250247         1.749076        -0.383614
 O         2.150271         2.861964         0.422874
 H        -0.763169         0.533672         0.532353
 H        -0.455631        -0.221593        -1.001916
 H        -0.055969        -1.112355         0.546846
 H         4.288291         0.587198         0.448779
 H         2.625522        -1.367974        -0.985458
 H         3.277688         0.207130        -2.985845
 H         1.481601         0.236778        -2.850001
 H         3.347788         2.595085        -2.095892
 H         1.574346         2.631680        -2.213962
 H         1.584082         2.752693         1.217835
