19
Iteration:  4782
 C         0.001106         0.187335         0.022988
 C         1.456020         0.382146        -0.021160
 O         2.258790         0.097831         1.228063
 C         3.220808         0.608991         0.087187
 C         2.446978        -0.308093        -0.983914
 C         2.521669         0.383997        -2.333475
 C         2.355986         1.876717        -1.866860
 C         2.250914         1.652366        -0.288730
 O         1.964049         2.791778         0.401168
 H        -0.470521         1.092272         0.353006
 H        -0.358294        -0.108581        -0.967604
 H        -0.331864        -0.608295         0.577120
 H         4.281497         0.789816         0.274630
 H         2.499646        -1.428488        -0.885321
 H         3.483798         0.274194        -2.850182
 H         1.717592         0.137358        -3.000129
 H         3.150908         2.476305        -2.079054
 H         1.516825         2.441714        -2.334595
 H         1.789530         2.439151         1.324795
