19
Iteration:   188charge 0 multiplicity 1
 C        -0.119323         0.039834        -0.013926
 C         1.380335         0.358398        -0.026495
 O         2.295162         0.132973         1.210853
 C         3.158256         0.605934         0.079011
 C         2.487102        -0.265581        -0.933949
 C         2.500075         0.400954        -2.244622
 C         2.348665         1.877059        -1.764123
 C         2.260282         1.678073        -0.335201
 O         2.096944         2.838296         0.306041
 H        -0.648167         0.767057         0.541912
 H        -0.400898         0.181500        -1.063173
 H        -0.305904        -0.969409         0.290285
 H         4.240784         0.643467         0.150322
 H         2.625685        -1.399377        -0.824943
 H         3.447850         0.308407        -2.654915
 H         1.772285        -0.007501        -3.034683
 H         3.121858         2.417254        -2.172619
 H         1.469279         2.523512        -2.054219
 H         2.106585         2.802325         1.294086
