19
Iteration:  3504
 C        -0.036673         0.315087         0.188588
 C         1.403267         0.392683        -0.068311
 O         2.277012         0.050237         1.120822
 C         3.259159         0.547380         0.142973
 C         2.431098        -0.360936        -0.965122
 C         2.771048         0.439470        -2.369291
 C         2.273905         1.781118        -1.918656
 C         2.174758         1.637305        -0.355552
 O         1.851600         2.867282         0.415857
 H        -0.315211         0.856977         1.075051
 H        -0.646396         0.539566        -0.642262
 H        -0.072804        -0.798222         0.464489
 H         4.376939         0.481750         0.402000
 H         2.457383        -1.462890        -1.051590
 H         3.830347         0.458944        -2.399824
 H         2.299136         0.011119        -3.236773
 H         3.008882         2.633410        -2.172751
 H         1.290451         2.095067        -2.277127
 H         2.271039         2.620300         1.260672
