19
Iteration:  1584
 C        -0.026160         0.310854         0.146192
 C         1.448691         0.450742        -0.047574
 O         2.233338         0.101889         1.173586
 C         3.260465         0.551800         0.131130
 C         2.586314        -0.319878        -0.958836
 C         2.569157         0.374710        -2.394943
 C         2.315855         1.783493        -1.959176
 C         2.192924         1.673795        -0.346423
 O         1.881336         2.773201         0.434544
 H        -0.301666         0.991109         1.020770
 H        -0.423145         0.532348        -0.781221
 H        -0.253302        -0.737483         0.388201
 H         4.299374         0.531780         0.652751
 H         2.685392        -1.406808        -0.888153
 H         3.536886         0.188631        -2.848425
 H         1.719923        -0.044233        -2.990578
 H         3.166014         2.426412        -2.228180
 H         1.414854         2.305197        -2.372435
 H         2.034424         2.447813         1.339030
