19
Iteration:  1593
 C        -0.094545         0.270499         0.063362
 C         1.452153         0.350583        -0.039137
 O         2.252468         0.157678         1.166485
 C         3.313262         0.511296         0.144248
 C         2.571124        -0.241393        -0.983713
 C         2.521025         0.335911        -2.360024
 C         2.346164         1.813398        -1.904796
 C         2.281213         1.682004        -0.297181
 O         1.878767         2.824904         0.447080
 H        -0.588012         0.914228         0.906706
 H        -0.760976         0.501806        -0.776816
 H        -0.233852        -0.866447         0.324960
 H         4.379956         0.462168         0.332249
 H         2.631394        -1.368645        -0.847908
 H         3.368102         0.049112        -2.983931
 H         1.651736        -0.196875        -2.930360
 H         3.093057         2.527547        -2.336980
 H         1.432136         2.094049        -2.470763
 H         2.128116         2.641501         1.364074
