19
Iteration:  2559
 C        -0.141959        -0.086290        -0.065283
 C         1.367329         0.315751         0.032204
 O         2.251902         0.129312         1.206289
 C         3.228554         0.627482         0.129258
 C         2.457283        -0.310047        -0.922625
 C         2.445804         0.408561        -2.340042
 C         2.377519         1.851305        -1.825204
 C         2.238009         1.729357        -0.342493
 O         2.206220         2.962721         0.406230
 H        -0.527974         0.649199         0.572685
 H        -0.427496         0.112051        -1.119243
 H        -0.316775        -1.168154         0.246285
 H         4.274821         0.776520         0.328449
 H         2.502476        -1.388278        -0.857470
 H         3.384551         0.263790        -2.881597
 H         1.570203         0.188997        -3.062800
 H         3.335356         2.410912        -2.051349
 H         1.599323         2.521403        -2.167029
 H         1.497600         2.873179         1.076818
