19
Iteration:  3575charge 0 multiplicity 1
 C        -0.027201         0.036585        -0.148004
 C         1.459912         0.408868        -0.031870
 O         2.297691         0.187621         1.175223
 C         3.253672         0.535788         0.091657
 C         2.472043        -0.333151        -0.870218
 C         2.339557         0.397512        -2.241828
 C         2.370304         1.869497        -1.880881
 C         2.222084         1.748854        -0.368999
 O         2.011523         2.842116         0.514285
 H        -0.793873         0.751972         0.306720
 H        -0.232746        -0.154742        -1.253578
 H        -0.075713        -0.832119         0.411345
 H         4.248417         0.598191         0.457291
 H         2.720338        -1.401670        -0.736569
 H         3.318730         0.202544        -2.786801
 H         1.405676         0.313335        -2.831016
 H         3.271775         2.368024        -2.151443
 H         1.606639         2.431228        -2.504138
 H         2.382414         2.428424         1.332640
