19
Iteration:  4474
 C        -0.007453         0.007109        -0.065861
 C         1.433578         0.349386        -0.013855
 O         2.222161         0.115833         1.237167
 C         3.215836         0.586244         0.262037
 C         2.534616        -0.296538        -0.939743
 C         2.362001         0.389146        -2.317020
 C         2.316418         1.928573        -1.911693
 C         2.277649         1.784544        -0.400757
 O         2.092340         2.872022         0.382410
 H        -0.579614         0.493291         0.724487
 H        -0.229270         0.389432        -1.095051
 H        -0.061602        -1.129417         0.004556
 H         4.241251         0.599007         0.677888
 H         2.573904        -1.340001        -0.714881
 H         3.257099        -0.093564        -2.833989
 H         1.528361         0.044009        -2.946234
 H         3.165394         2.450843        -2.210099
 H         1.337908         2.468120        -2.300448
 H         2.030573         2.481232         1.294576
