19
Iteration:  2915charge 0 multiplicity 1
 C        -0.118565        -0.090602        -0.061508
 C         1.333747         0.413965         0.021488
 O         2.272437         0.153615         1.236370
 C         3.195932         0.607143         0.128308
 C         2.460493        -0.278015        -0.979253
 C         2.577983         0.418217        -2.260092
 C         2.206851         1.833578        -1.789583
 C         2.206312         1.721530        -0.345823
 O         2.257429         2.910039         0.324245
 H        -0.940986         0.270957         0.612143
 H        -0.459115         0.129877        -1.076674
 H        -0.165511        -1.096056         0.174671
 H         4.305347         0.684356         0.362017
 H         2.465502        -1.382734        -0.962446
 H         3.612011         0.489421        -2.676208
 H         1.935413        -0.118478        -2.919891
 H         2.996711         2.404022        -2.168598
 H         1.303116         2.309728        -2.293598
 H         2.008980         2.930171         1.288558
