19
Iteration:   132
 C        -0.131100         0.321952         0.119232
 C         1.427858         0.290320        -0.049313
 O         2.304865         0.218640         1.193237
 C         3.271430         0.539750         0.108953
 C         2.479032        -0.363529        -0.941279
 C         2.663604         0.455039        -2.320872
 C         2.369189         1.917636        -1.919161
 C         2.279468         1.613925        -0.395975
 O         1.864155         2.679604         0.381636
 H        -0.433991         1.037823         0.865717
 H        -0.768522         0.473686        -0.667834
 H        -0.454894        -0.641157         0.565574
 H         4.309747         0.486193         0.422520
 H         2.600644        -1.483236        -0.925191
 H         3.643969         0.221698        -2.626997
 H         1.933997         0.249672        -3.140313
 H         2.908879         2.746910        -2.315983
 H         1.301053         1.988000        -2.061665
 H         1.829401         2.388501         1.331866
