19
Iteration:  3581charge 0 multiplicity 1
 C        -0.025287        -0.027206        -0.154003
 C         1.430158         0.439305        -0.073991
 O         2.306975         0.233147         1.199189
 C         3.246448         0.539688         0.142392
 C         2.486290        -0.364726        -0.886095
 C         2.313921         0.411375        -2.264324
 C         2.365668         1.909373        -1.862474
 C         2.249480         1.749796        -0.328458
 O         2.030207         2.818567         0.482724
 H        -0.591831         0.741691         0.304415
 H        -0.345901        -0.192188        -1.159393
 H        -0.159919        -1.033281         0.440786
 H         4.333036         0.547554         0.529676
 H         2.411263        -1.467812        -0.941021
 H         3.167618         0.150482        -2.848331
 H         1.470348         0.240574        -2.937531
 H         3.370152         2.358526        -2.178196
 H         1.698781         2.483982        -2.520606
 H         2.336519         2.602453         1.398868
