19
Iteration:  4400
 C        -0.063018         0.244282         0.167839
 C         1.400593         0.382130        -0.106991
 O         2.267934         0.172561         1.095097
 C         3.265731         0.567196         0.097173
 C         2.491127        -0.371621        -0.971230
 C         2.693760         0.383445        -2.341870
 C         2.327793         1.879257        -1.871838
 C         2.175472         1.690183        -0.379209
 O         1.891873         2.750718         0.466678
 H        -0.311406         1.026382         0.823363
 H        -0.677961         0.269876        -0.782887
 H        -0.158807        -0.677188         0.728391
 H         4.341112         0.562089         0.404328
 H         2.705200        -1.468455        -0.870908
 H         3.722970         0.258667        -2.666965
 H         1.995772        -0.117363        -3.016965
 H         3.081761         2.682370        -2.082285
 H         1.310418         2.180738        -2.172042
 H         1.818019         2.356195         1.383489
