19
Iteration:  2874charge 0 multiplicity 1
 C        -0.078876        -0.034087         0.043691
 C         1.380129         0.438872        -0.075574
 O         2.178210         0.170603         1.143275
 C         3.155927         0.576746         0.116104
 C         2.565697        -0.256250        -0.915666
 C         2.505934         0.392558        -2.257100
 C         2.287295         1.847277        -1.920487
 C         2.304178         1.715041        -0.291393
 O         2.127929         2.861937         0.384901
 H        -0.516428         0.506864         0.897317
 H        -0.626235         0.211961        -0.881820
 H        -0.121076        -1.199102         0.227560
 H         4.185509         0.636873         0.489555
 H         2.767757        -1.285068        -0.792445
 H         3.456856         0.292975        -2.827029
 H         1.662488        -0.031095        -2.928572
 H         3.125152         2.421675        -2.259999
 H         1.371473         2.362221        -2.206208
 H         2.238534         2.550324         1.302938
