19
Iteration:  3318charge 0 multiplicity 1
 C        -0.077958         0.293934         0.207053
 C         1.409098         0.363985        -0.049042
 O         2.334864         0.155646         1.191749
 C         3.186387         0.556174         0.109020
 C         2.547280        -0.362090        -1.005970
 C         2.622144         0.399287        -2.290515
 C         2.410895         1.917881        -1.845513
 C         2.168820         1.579401        -0.445413
 O         1.867755         2.726228         0.316839
 H        -0.411455         1.027148         1.028985
 H        -0.782816         0.464498        -0.602763
 H        -0.395902        -0.756085         0.433484
 H         4.264611         0.817060         0.359384
 H         2.403697        -1.407693        -0.927729
 H         3.717913         0.405785        -2.570286
 H         1.914489         0.069370        -3.035957
 H         3.198757         2.664650        -2.135749
 H         1.494078         2.292113        -2.230062
 H         2.039575         2.467107         1.250682
