19
Iteration:  2902
 C        -0.031952        -0.129296        -0.045335
 C         1.356211         0.308734         0.010950
 O         2.249504         0.224147         1.273856
 C         3.061023         0.516902         0.133941
 C         2.428797        -0.307640        -0.907094
 C         2.553045         0.459935        -2.326927
 C         2.250498         1.896334        -1.892481
 C         2.193943         1.691373        -0.299165
 O         2.259188         2.961529         0.313858
 H        -0.568812         0.515608         0.700991
 H        -0.349818         0.158979        -1.058816
 H        -0.129680        -1.152707        -0.035032
 H         4.157386         0.538237         0.343476
 H         2.729622        -1.405586        -0.797554
 H         3.606426         0.321996        -2.658424
 H         1.953196         0.221505        -3.143895
 H         2.987748         2.727675        -2.068929
 H         1.204243         2.237806        -2.165689
 H         2.417258         2.778645         1.266177
