19
Iteration:   808charge 0 multiplicity 1
 C        -0.069794         0.154056         0.025923
 C         1.444710         0.354389        -0.095489
 O         2.260953         0.051452         1.106796
 C         3.261829         0.546166         0.170151
 C         2.466408        -0.342412        -0.987861
 C         2.565779         0.315209        -2.372284
 C         2.284077         1.871643        -1.841975
 C         2.233126         1.723352        -0.309657
 O         1.946830         2.947690         0.521873
 H        -0.371274         0.834832         0.812459
 H        -0.608276         0.392878        -1.012052
 H        -0.234649        -0.861383         0.419305
 H         4.355269         0.555585         0.485570
 H         2.544413        -1.444801        -0.620178
 H         3.606416         0.232895        -2.673926
 H         1.994808        -0.090859        -3.193360
 H         3.038315         2.553633        -2.336019
 H         1.310750         2.344284        -2.252384
 H         2.684825         3.168889         1.116609
