19
Iteration:  2006
 C        -0.109671        -0.088689         0.098128
 C         1.362609         0.359596        -0.048651
 O         2.129851         0.063022         1.109010
 C         3.202666         0.628370         0.062858
 C         2.515811        -0.260080        -0.983216
 C         2.458223         0.399773        -2.291437
 C         2.461334         1.928742        -1.877747
 C         2.252629         1.729137        -0.307963
 O         2.203469         2.946943         0.452090
 H        -0.704461         0.575934         0.798294
 H        -0.730732        -0.038046        -0.793651
 H        -0.241372        -1.133542         0.542769
 H         4.332614         0.552026         0.324570
 H         2.870578        -1.263459        -0.878504
 H         3.203300         0.177607        -3.051701
 H         1.457178         0.127080        -2.684909
 H         3.299847         2.517178        -2.128199
 H         1.598806         2.436092        -2.327879
 H         1.748959         2.676181         1.265116
