19
Iteration:  4717charge 0 multiplicity 1
 C        -0.020111         0.180520         0.147182
 C         1.401393         0.329770        -0.132346
 O         2.214788         0.040685         1.138632
 C         3.162360         0.582316         0.201064
 C         2.550779        -0.277433        -0.947164
 C         2.629947         0.426654        -2.258208
 C         2.273185         1.904846        -1.900152
 C         2.199602         1.657263        -0.428543
 O         2.044058         2.808485         0.378159
 H        -0.240607         0.932637         0.927799
 H        -0.680734         0.570811        -0.714904
 H        -0.479834        -0.701339         0.452394
 H         4.208999         0.834436         0.472562
 H         2.564160        -1.408187        -0.898251
 H         3.632260         0.313562        -2.632944
 H         1.901648        -0.009722        -2.924370
 H         3.104995         2.489258        -2.152702
 H         1.447424         2.318471        -2.455990
 H         1.920432         2.563422         1.339826
