19
Iteration:  2652charge 0 multiplicity 1
 C        -0.039942         0.307028         0.097609
 C         1.484674         0.301469        -0.030802
 O         2.330687         0.105751         1.163370
 C         3.174778         0.556101         0.083692
 C         2.461897        -0.374559        -1.014656
 C         2.583077         0.362733        -2.325149
 C         2.415234         1.853878        -1.855650
 C         2.272359         1.708313        -0.375304
 O         1.759932         2.833784         0.476196
 H        -0.500418         1.003106         0.947442
 H        -0.636293         0.513728        -0.843229
 H        -0.306333        -0.734536         0.282819
 H         4.295978         0.418295         0.357543
 H         2.801397        -1.466144        -1.168862
 H         3.585845         0.038007        -2.843006
 H         1.717385         0.093774        -2.895451
 H         3.304320         2.440149        -2.093868
 H         1.549702         2.434392        -2.282680
 H         2.391415         2.788398         1.220381
