19
Iteration:   711
 C        -0.067845         0.170012        -0.027497
 C         1.431408         0.368030        -0.040816
 O         2.329598         0.116886         1.244730
 C         3.147169         0.600417         0.059484
 C         2.522164        -0.340557        -0.979792
 C         2.524741         0.374702        -2.302571
 C         2.321608         1.852108        -1.828016
 C         2.233005         1.691096        -0.366307
 O         2.018368         2.855918         0.466156
 H        -0.513676         0.894751         0.623380
 H        -0.435760         0.304004        -1.112370
 H        -0.344426        -0.818628         0.332143
 H         4.202543         0.553491         0.344011
 H         2.648644        -1.502562        -1.109678
 H         3.464075         0.220712        -2.798214
 H         1.616897         0.022853        -3.001065
 H         3.135506         2.586963        -2.040197
 H         1.337066         2.163465        -2.305954
 H         1.864955         2.565958         1.394545
