19
Iteration:  2188charge 0 multiplicity 1
 C        -0.038241        -0.010571         0.140844
 C         1.404983         0.335996        -0.098384
 O         2.150366         0.182133         1.225085
 C         3.222557         0.582269         0.199170
 C         2.516110        -0.238357        -1.000465
 C         2.368464         0.496913        -2.376777
 C         2.477784         1.933268        -1.835582
 C         2.290597         1.594144        -0.346966
 O         2.035373         2.812379         0.351645
 H        -0.583718         0.476830         0.857946
 H        -0.323788         0.175336        -0.955680
 H        -0.034731        -1.093949         0.411103
 H         4.238310         0.656226         0.603606
 H         2.689108        -1.326230        -1.383541
 H         3.108056         0.113429        -3.207449
 H         1.405317         0.307731        -2.769640
 H         3.541523         2.114691        -2.102764
 H         1.837976         2.804216        -2.314002
 H         2.123721         2.682020         1.322312
