19
Iteration:  4951charge 0 multiplicity 1
 C        -0.038262         0.192613        -0.017570
 C         1.408043         0.357532        -0.090463
 O         2.352614         0.183627         1.174541
 C         3.218733         0.396608         0.107778
 C         2.501586        -0.340257        -0.953405
 C         2.574377         0.407413        -2.271306
 C         2.279818         1.902977        -1.817252
 C         2.220033         1.661753        -0.324949
 O         1.930669         2.856752         0.429777
 H        -0.411510         0.953790         0.736223
 H        -0.365195         0.445694        -1.061585
 H        -0.349536        -0.832142         0.466473
 H         4.357052         0.549864         0.265116
 H         2.456635        -1.388135        -1.055805
 H         3.559499         0.393573        -2.785047
 H         1.745921        -0.001341        -2.968138
 H         3.107941         2.730528        -2.067984
 H         1.400816         2.270771        -2.252565
 H         1.880362         2.430269         1.331250
