19
Iteration:  2101
 C         0.005721         0.335508         0.040768
 C         1.385543         0.297717         0.016294
 O         2.223932         0.108008         1.079789
 C         3.277656         0.492069         0.119697
 C         2.646382        -0.347033        -0.979271
 C         2.562033         0.454578        -2.307357
 C         2.135594         1.806978        -1.831471
 C         2.245707         1.714168        -0.346179
 O         1.977310         2.769032         0.450551
 H        -0.295752         1.070398         0.736969
 H        -0.460413         0.486101        -1.028184
 H        -0.500665        -0.628256         0.355603
 H         4.252940         0.513114         0.645949
 H         2.829000        -1.458477        -1.023946
 H         3.646838         0.554204        -2.822342
 H         1.874777         0.083800        -3.041211
 H         2.771950         2.601739        -2.281027
 H         1.067452         2.227097        -2.053505
 H         2.374361         2.606463         1.344838
