19
Iteration:  3162charge 0 multiplicity 1
 C        -0.011783         0.339219         0.214240
 C         1.462592         0.402669        -0.010188
 O         2.324028         0.088474         1.176526
 C         3.207893         0.558427         0.069976
 C         2.521325        -0.320725        -0.987812
 C         2.662865         0.389077        -2.402017
 C         2.372771         1.901572        -1.826619
 C         2.189693         1.637615        -0.363462
 O         1.749741         2.710721         0.351444
 H        -0.607782         1.134576         0.822534
 H        -0.689860         0.190712        -0.721387
 H        -0.140048        -0.581418         0.734147
 H         4.269453         0.580589         0.290042
 H         2.527845        -1.462214        -0.922048
 H         3.641703         0.080037        -2.830382
 H         1.989024        -0.170574        -3.181888
 H         3.315603         2.468307        -2.129935
 H         1.543401         2.386640        -2.243230
 H         1.986238         2.831654         1.271742
