19
Iteration:  1831
 C        -0.037956        -0.072412        -0.001180
 C         1.400896         0.321770        -0.027740
 O         2.129395         0.168820         1.198663
 C         3.134519         0.602860         0.150904
 C         2.506402        -0.286464        -0.935414
 C         2.479009         0.475027        -2.355142
 C         2.306973         1.978027        -1.798575
 C         2.199493         1.675385        -0.361718
 O         2.249530         2.865230         0.370220
 H        -0.526885         0.559023         0.683331
 H        -0.581304        -0.177816        -0.900674
 H         0.092467        -1.083390         0.503943
 H         4.284612         0.551573         0.424991
 H         2.605043        -1.375342        -1.034696
 H         3.421988         0.180487        -2.803145
 H         1.652356         0.257937        -3.088159
 H         3.237439         2.326353        -2.217166
 H         1.382055         2.502685        -2.150151
 H         2.381312         2.534873         1.295754
