19
Iteration:  3987charge 0 multiplicity 1
 C        -0.074841        -0.013798         0.032581
 C         1.389341         0.375743        -0.014083
 O         2.224282         0.061603         1.134085
 C         3.204468         0.633520         0.037365
 C         2.471451        -0.297045        -0.961453
 C         2.505872         0.429248        -2.376918
 C         2.407771         1.903292        -1.804661
 C         2.307765         1.735631        -0.310898
 O         1.985825         2.859346         0.491267
 H        -0.587999         0.884571         0.505508
 H        -0.427140        -0.125430        -1.047557
 H        -0.330452        -0.906917         0.480426
 H         4.321389         0.540462         0.229760
 H         2.463921        -1.386894        -0.743640
 H         3.465210         0.367852        -2.899314
 H         1.645826         0.084088        -3.022168
 H         3.367150         2.486713        -2.004127
 H         1.529215         2.415116        -2.167516
 H         2.530444         2.849414         1.310920
