19
Iteration:  1780
 C        -0.039909         0.176735        -0.022728
 C         1.443011         0.330349        -0.017669
 O         2.322320         0.129086         1.140728
 C         3.242558         0.643434         0.101472
 C         2.482298        -0.295843        -0.898304
 C         2.497314         0.399824        -2.296318
 C         2.262734         1.870451        -1.844812
 C         2.176172         1.603302        -0.352253
 O         2.055413         2.812526         0.467217
 H        -0.559306         1.024128         0.579744
 H        -0.219322         0.523373        -1.041021
 H        -0.381553        -0.843368         0.040875
 H         4.221235         0.714915         0.278376
 H         2.517777        -1.354205        -0.941398
 H         3.452446         0.265750        -2.768578
 H         1.749999        -0.158655        -2.923521
 H         3.190150         2.338964        -2.174301
 H         1.392162         2.349130        -2.243850
 H         1.712550         2.477802         1.308450
