19
Iteration:  1882
 C         0.026528         0.146699         0.093090
 C         1.451375         0.440376        -0.049193
 O         2.285270         0.073078         1.200565
 C         3.194164         0.494880         0.064563
 C         2.403792        -0.309078        -0.970085
 C         2.538693         0.441319        -2.347532
 C         2.381126         1.917084        -1.816741
 C         2.255491         1.700063        -0.327166
 O         1.888247         2.785882         0.390773
 H        -0.398048         0.907541         0.792949
 H        -0.462796         0.314762        -0.984146
 H        -0.202117        -0.822841         0.606455
 H         4.316202         0.610641         0.198235
 H         2.435999        -1.429234        -0.966013
 H         3.586867         0.051260        -2.666956
 H         1.844445         0.401049        -3.170550
 H         3.326496         2.409251        -2.084630
 H         1.599927         2.416463        -2.418539
 H         2.042582         2.562470         1.339160
