19
Iteration:   822
 C        -0.000702         0.303507         0.040528
 C         1.456231         0.369277        -0.019636
 O         2.207736         0.075100         1.175257
 C         3.217238         0.540285         0.085637
 C         2.554197        -0.358936        -0.962466
 C         2.622173         0.394078        -2.305312
 C         2.194016         1.862900        -1.882647
 C         2.333111         1.649034        -0.378257
 O         1.905676         2.815826         0.472829
 H        -0.532443         1.026224         0.706059
 H        -0.395331         0.483050        -0.949715
 H        -0.364065        -0.760982         0.225167
 H         4.214505         0.619816         0.418565
 H         2.750840        -1.470061        -1.048216
 H         3.563188         0.406558        -2.788715
 H         1.767682        -0.005384        -3.001519
 H         2.863601         2.685535        -2.177326
 H         1.129088         2.024456        -2.014786
 H         2.555895         2.753138         1.198907
