19
Iteration:  3671
 C        -0.018986         0.261842         0.128109
 C         1.426827         0.340258        -0.058297
 O         2.309027         0.106255         1.188430
 C         3.219132         0.417494         0.119049
 C         2.517610        -0.347730        -0.973020
 C         2.681875         0.494287        -2.256089
 C         2.241550         1.942049        -1.871270
 C         2.131862         1.681108        -0.433288
 O         1.923820         2.772020         0.361219
 H        -0.244355         0.815457         1.040770
 H        -0.570047         0.831643        -0.685367
 H        -0.465478        -0.735959         0.239525
 H         4.253483         0.040384         0.344573
 H         2.846467        -1.378865        -1.023515
 H         3.768152         0.441808        -2.490508
 H         2.151382         0.089409        -3.085506
 H         2.808154         2.843837        -1.987094
 H         1.261713         2.224628        -2.446230
 H         1.949587         2.443321         1.302621
