19
Iteration:  1258charge 0 multiplicity 1
 C        -0.049619        -0.001231         0.065485
 C         1.426596         0.318586        -0.042393
 O         2.209269         0.171871         1.194950
 C         3.239994         0.581799         0.128035
 C         2.481486        -0.356739        -0.899970
 C         2.475188         0.377198        -2.339654
 C         2.362366         1.955598        -1.842143
 C         2.167038         1.706589        -0.384699
 O         2.098244         2.885418         0.341493
 H        -0.406365         0.766135         0.871442
 H        -0.579268         0.175152        -0.849607
 H        -0.214895        -1.053807         0.509693
 H         4.312579         0.737792         0.288040
 H         2.496697        -1.454695        -0.922481
 H         3.507381         0.249196        -2.815080
 H         1.592103         0.072687        -2.880891
 H         3.258834         2.490852        -2.105799
 H         1.530138         2.570677        -2.313325
 H         2.230397         2.692813         1.285792
