19
Iteration:  3602
 C        -0.052498        -0.075247        -0.014296
 C         1.400379         0.334048        -0.038293
 O         2.197916         0.251993         1.263008
 C         3.163570         0.564047         0.117447
 C         2.463868        -0.278544        -0.966835
 C         2.388999         0.464965        -2.360031
 C         2.442412         1.904536        -1.775341
 C         2.292741         1.667254        -0.355283
 O         2.133913         2.844396         0.365222
 H        -0.755172         0.493709         0.588723
 H        -0.321393        -0.175553        -1.038677
 H         0.053368        -1.182627         0.392816
 H         4.249221         0.653110         0.441411
 H         2.839653        -1.318531        -0.943287
 H         3.149414         0.177911        -3.044820
 H         1.352379         0.427665        -2.851971
 H         3.328406         2.602225        -2.098703
 H         1.644352         2.559157        -2.118026
 H         1.844048         2.397911         1.204367
