19
Iteration:  3636
 C        -0.079203         0.025325         0.144754
 C         1.309826         0.359070        -0.147422
 O         2.276557         0.035762         1.144296
 C         3.101697         0.581264         0.136825
 C         2.452745        -0.246657        -0.984812
 C         2.631970         0.369742        -2.364275
 C         2.392660         1.878763        -1.807546
 C         2.199563         1.778664        -0.347533
 O         2.075168         2.947601         0.410975
 H        -0.415701         0.533466         0.998066
 H        -0.798213         0.148203        -0.665180
 H        -0.016226        -1.133801         0.381201
 H         4.232948         0.638947         0.361840
 H         2.768268        -1.283235        -0.857709
 H         3.565813        -0.001497        -2.727646
 H         1.849867         0.217155        -3.140705
 H         3.293422         2.570828        -1.939531
 H         1.456690         2.187762        -2.323391
 H         2.206565         2.583747         1.333396
