19
Iteration:  3525
 C        -0.022926         0.295618         0.118518
 C         1.445495         0.323701        -0.061695
 O         2.219132         0.103642         1.182963
 C         3.208420         0.493444         0.107575
 C         2.595806        -0.334199        -0.965065
 C         2.689209         0.436411        -2.277000
 C         2.173782         1.903518        -1.849882
 C         2.279182         1.665931        -0.339190
 O         1.918341         2.764089         0.317703
 H        -0.340008         1.127119         0.806826
 H        -0.401179         0.525286        -0.855932
 H        -0.462494        -0.638961         0.605943
 H         4.331782         0.386577         0.309062
 H         2.651593        -1.440598        -1.093062
 H         3.698244         0.464493        -2.622195
 H         1.950887         0.028990        -2.981144
 H         2.816187         2.789208        -2.284511
 H         1.130931         2.043963        -2.101920
 H         1.882043         2.555133         1.273486
