19
Iteration:  1073charge 0 multiplicity 1
 C        -0.116071         0.062156         0.117483
 C         1.403165         0.309443        -0.082911
 O         2.259801         0.091769         1.160936
 C         3.208171         0.646585         0.133963
 C         2.512452        -0.311681        -0.930178
 C         2.507514         0.406818        -2.347842
 C         2.400238         1.922979        -1.871648
 C         2.165423         1.727266        -0.359657
 O         2.095841         2.842125         0.388552
 H        -0.465364         0.872634         0.798918
 H        -0.560452         0.124313        -0.803500
 H        -0.267581        -0.984733         0.515471
 H         4.119327         0.749142         0.599062
 H         2.569187        -1.360971        -0.761625
 H         3.458550         0.181394        -2.924635
 H         1.623026         0.002173        -2.939037
 H         3.260726         2.641186        -2.032655
 H         1.557149         2.298321        -2.602715
 H         1.933078         2.516063         1.314706
