19
Iteration:  4358
 C        -0.088541         0.188165        -0.001314
 C         1.442825         0.327607        -0.007821
 O         2.305908         0.090470         1.126310
 C         3.211328         0.578088         0.096068
 C         2.546217        -0.302179        -0.908617
 C         2.548770         0.364988        -2.269379
 C         2.226493         1.882131        -1.855184
 C         2.242641         1.701814        -0.332233
 O         1.995653         2.823591         0.419285
 H        -0.598775         1.087422         0.392470
 H        -0.222785         0.067961        -1.135101
 H        -0.297653        -0.731921         0.476084
 H         4.269265         0.611080         0.465173
 H         2.593112        -1.414569        -0.702936
 H         3.432412         0.259865        -2.857848
 H         1.781588         0.154304        -3.025201
 H         3.012560         2.668653        -2.184897
 H         1.371868         2.210964        -2.304240
 H         2.162518         2.714130         1.359759
