19
Iteration:  3284
 C        -0.045828         0.075841         0.001914
 C         1.439256         0.375898        -0.037610
 O         2.246548         0.071381         1.174765
 C         3.270638         0.614260         0.087700
 C         2.564302        -0.281459        -0.893273
 C         2.376038         0.288816        -2.247597
 C         2.437386         1.883857        -1.881533
 C         2.242496         1.751620        -0.352082
 O         1.979533         2.924139         0.388594
 H        -0.503654         0.518871         0.961529
 H        -0.504683         0.496815        -0.917629
 H        -0.166599        -0.981543         0.125630
 H         4.301539         0.649037         0.470409
 H         2.520053        -1.331473        -0.784928
 H         3.213351         0.102816        -2.950776
 H         1.508958        -0.099284        -2.809143
 H         3.328853         2.421976        -2.345007
 H         1.565900         2.308880        -2.272571
 H         1.596812         2.627434         1.248120
