19
Iteration:  2558
 C        -0.142675        -0.084268        -0.064708
 C         1.369547         0.306868         0.030178
 O         2.251279         0.132286         1.206992
 C         3.229237         0.630834         0.128601
 C         2.460649        -0.317088        -0.927022
 C         2.447073         0.416528        -2.329718
 C         2.381329         1.850089        -1.825041
 C         2.233787         1.724130        -0.340671
 O         2.206002         2.968968         0.405139
 H        -0.568266         0.648320         0.603410
 H        -0.446276         0.084936        -1.122076
 H        -0.299749        -1.143428         0.221970
 H         4.269463         0.765491         0.337178
 H         2.498358        -1.414700        -0.896189
 H         3.344569         0.279648        -2.887117
 H         1.545183         0.187594        -3.032081
 H         3.371533         2.402060        -2.079539
 H         1.607295         2.526005        -2.224599
 H         1.506984         2.864889         1.100789
