19
Iteration:  2855charge 0 multiplicity 1
 C        -0.045807         0.140284         0.077839
 C         1.466319         0.354847        -0.097843
 O         2.259811         0.135950         1.212082
 C         3.247306         0.641074         0.143332
 C         2.488423        -0.330239        -0.974902
 C         2.534705         0.291234        -2.360389
 C         2.375915         1.877298        -1.897137
 C         2.164732         1.694701        -0.384315
 O         2.003619         2.863968         0.476225
 H        -0.378220         0.800416         0.838543
 H        -0.588692         0.283271        -0.864601
 H        -0.169790        -0.983380         0.264225
 H         4.250459         0.698609         0.522708
 H         2.461660        -1.419970        -0.909968
 H         3.331372         0.147468        -3.044410
 H         1.589317         0.185625        -2.950657
 H         3.309705         2.549983        -2.090456
 H         1.468616         2.297770        -2.300573
 H         1.621185         2.556217         1.314338
