19
Iteration:  2120charge 0 multiplicity 1
 C        -0.089204         0.234436         0.019392
 C         1.434250         0.332443        -0.155257
 O         2.302973         0.121959         1.267548
 C         3.260831         0.515324         0.127260
 C         2.479034        -0.352985        -0.970492
 C         2.624137         0.489833        -2.309877
 C         2.147114         1.919518        -1.824545
 C         2.246263         1.621723        -0.339580
 O         2.038249         2.768538         0.397176
 H        -0.445419         0.962030         0.739476
 H        -0.536562         0.456809        -0.990165
 H        -0.447800        -0.697880         0.369807
 H         4.334408         0.554882         0.149827
 H         2.609320        -1.563766        -0.974083
 H         3.645200         0.459135        -2.670779
 H         2.006469        -0.065881        -3.072515
 H         2.710685         2.877785        -2.125349
 H         1.105843         2.074750        -2.105437
 H         2.217784         2.709544         1.352292
