19
Iteration:  1798charge 0 multiplicity 1
 C        -0.072816         0.059843        -0.118662
 C         1.377495         0.426178         0.004697
 O         2.338593         0.164242         1.245862
 C         3.190339         0.521720         0.069494
 C         2.464484        -0.320535        -0.967037
 C         2.510695         0.354407        -2.332047
 C         2.278747         1.860744        -1.844857
 C         2.232305         1.763742        -0.318807
 O         2.116925         2.886157         0.507310
 H        -0.752771         0.460049         0.554699
 H        -0.538364         0.052778        -1.085367
 H        -0.154368        -1.045381         0.229077
 H         4.398795         0.584535         0.207735
 H         2.517513        -1.455781        -0.841270
 H         3.443414         0.075101        -2.845407
 H         1.663175         0.179004        -3.071381
 H         3.031663         2.585763        -2.360223
 H         1.323232         2.352648        -2.267625
 H         1.897351         2.562926         1.393758
