19
Iteration:  4693
 C        -0.098813         0.072631         0.013920
 C         1.408641         0.415301         0.014074
 O         2.242876         0.147307         1.176018
 C         3.191233         0.496074         0.111694
 C         2.537154        -0.295585        -0.990288
 C         2.540957         0.370212        -2.373435
 C         2.314991         1.830555        -1.779096
 C         2.293212         1.727888        -0.301447
 O         2.063315         2.907012         0.395632
 H        -0.733198         0.423297         0.799736
 H        -0.572743         0.455345        -0.955059
 H        -0.352317        -1.039764        -0.096570
 H         4.286500         0.506631         0.194849
 H         2.569384        -1.357786        -0.696860
 H         3.632456         0.282874        -2.583939
 H         1.830482         0.050300        -3.133857
 H         2.929545         2.479913        -2.275534
 H         1.296466         2.189127        -2.216163
 H         1.857163         2.883651         1.344094
