19
Iteration:  3381charge 0 multiplicity 1
 C        -0.096459         0.101717        -0.015282
 C         1.441816         0.346994        -0.005682
 O         2.246193         0.181016         1.149609
 C         3.206697         0.532017         0.168310
 C         2.558250        -0.312794        -0.900893
 C         2.513968         0.440144        -2.259289
 C         2.246378         1.858156        -1.862331
 C         2.272056         1.679541        -0.410941
 O         2.059248         2.845788         0.360460
 H        -0.588589         0.958159         0.546779
 H        -0.365802        -0.031357        -1.074564
 H        -0.328472        -0.692415         0.606759
 H         4.262748         0.424426         0.301483
 H         2.593609        -1.377350        -0.742534
 H         3.514668         0.341916        -2.607991
 H         1.815736         0.048102        -3.014574
 H         3.046997         2.638019        -2.245493
 H         1.233234         2.179244        -1.898317
 H         2.103799         2.479631         1.266542
