19
Iteration:  4923
 C        -0.063825         0.313899         0.147715
 C         1.429424         0.320781         0.020109
 O         2.277510         0.038424         1.151502
 C         3.284242         0.591075         0.091611
 C         2.465495        -0.270542        -0.960221
 C         2.576117         0.376170        -2.353578
 C         2.399587         1.906510        -1.850172
 C         2.303968         1.623279        -0.397095
 O         1.806976         2.751899         0.381443
 H        -0.224455         0.921733         0.996131
 H        -0.358661         0.798483        -0.802289
 H        -0.399147        -0.663614         0.209721
 H         4.295569         0.764295         0.365980
 H         2.656707        -1.394558        -0.967970
 H         3.624251         0.359005        -2.600745
 H         1.912219         0.108553        -3.131474
 H         3.155315         2.554937        -2.091540
 H         1.410548         2.369432        -2.276907
 H         1.716436         2.337145         1.259054
