19
Iteration:  3458charge 0 multiplicity 1
 C        -0.009958         0.031466         0.129539
 C         1.416851         0.395263        -0.076970
 O         2.212922         0.263105         1.218241
 C         3.144684         0.529403         0.155933
 C         2.515402        -0.321239        -1.034729
 C         2.496799         0.401307        -2.337834
 C         2.387406         1.898897        -1.817540
 C         2.212846         1.663341        -0.379217
 O         2.042763         2.793883         0.344282
 H        -0.433200         0.609814         1.007117
 H        -0.468568         0.415959        -0.798375
 H        -0.147138        -1.023203         0.159580
 H         4.142569         0.713408         0.557936
 H         2.706970        -1.384116        -0.906787
 H         3.409197         0.268525        -2.859792
 H         1.587392         0.010314        -2.831849
 H         3.446292         2.361805        -2.090502
 H         1.716808         2.552740        -2.321171
 H         1.863297         2.528043         1.279586
