19
Iteration:   524
 C         0.033437         0.215199        -0.015082
 C         1.427293         0.332582        -0.018402
 O         2.291027         0.159022         1.139747
 C         3.211778         0.525577         0.149231
 C         2.431562        -0.329775        -0.946798
 C         2.554028         0.393054        -2.302771
 C         2.219145         1.837281        -1.949974
 C         2.229930         1.727982        -0.319145
 O         2.014645         2.828075         0.506942
 H        -0.452823         0.935727         0.633988
 H        -0.300857         0.263829        -1.071292
 H        -0.214646        -0.749911         0.325318
 H         4.284514         0.584557         0.376150
 H         2.641074        -1.458440        -0.892977
 H         3.571135         0.394176        -2.690721
 H         1.844823        -0.085608        -3.033042
 H         3.028100         2.377279        -2.480538
 H         1.249362         2.231899        -2.224676
 H         2.056995         2.436342         1.419438
