19
Iteration:  2007charge 0 multiplicity 1
 C        -0.119888        -0.093010         0.095984
 C         1.371521         0.364220        -0.047712
 O         2.134943         0.063354         1.099696
 C         3.202202         0.630538         0.067872
 C         2.508216        -0.261353        -0.970714
 C         2.457954         0.393900        -2.303731
 C         2.466999         1.938561        -1.868766
 C         2.254801         1.738872        -0.310052
 O         2.198032         2.940718         0.447546
 H        -0.671303         0.613036         0.804128
 H        -0.726891        -0.060102        -0.751532
 H        -0.217353        -1.124868         0.527343
 H         4.300503         0.571451         0.381421
 H         2.863100        -1.311039        -0.930659
 H         3.172209         0.163087        -3.032188
 H         1.433636         0.079389        -2.665857
 H         3.326165         2.540022        -2.143817
 H         1.615958         2.436785        -2.305854
 H         1.765580         2.635557         1.272896
