19
Iteration:  2796
 C         0.012203         0.314108         0.107665
 C         1.464217         0.280881        -0.055418
 O         2.259821         0.081621         1.151619
 C         3.233472         0.587118         0.110463
 C         2.570022        -0.304402        -0.986679
 C         2.517376         0.363614        -2.315090
 C         2.345862         1.834855        -1.893378
 C         2.230028         1.679574        -0.336696
 O         1.823922         2.809072         0.424936
 H        -0.375597         1.271649         0.583821
 H        -0.457912         0.251335        -0.899115
 H        -0.354393        -0.467964         0.753908
 H         4.308149         0.446430         0.398052
 H         2.852853        -1.363182        -0.868619
 H         3.565794         0.319948        -2.768840
 H         1.792980         0.024166        -3.090240
 H         3.141243         2.413510        -2.208775
 H         1.445366         2.431698        -2.130451
 H         2.142195         2.490852         1.302322
