19
Iteration:   912charge 0 multiplicity 1
 C        -0.082592        -0.097386         0.098012
 C         1.388190         0.240585        -0.028483
 O         2.140961         0.162921         1.161793
 C         3.189531         0.620661         0.130379
 C         2.477837        -0.281099        -0.975248
 C         2.491257         0.517298        -2.342826
 C         2.450962         1.917479        -1.797955
 C         2.289034         1.708821        -0.340263
 O         2.116949         2.906548         0.326779
 H        -0.485392         0.722951         0.764686
 H        -0.658603         0.004629        -0.783569
 H        -0.390969        -1.068416         0.495601
 H         4.242030         0.374532         0.295167
 H         2.662222        -1.313340        -1.013431
 H         3.229950        -0.068582        -2.935299
 H         1.491592         0.259153        -2.792048
 H         3.344193         2.535489        -1.982060
 H         1.654122         2.429895        -2.204405
 H         2.220276         2.646180         1.280492
