19
Iteration:  1518charge 0 multiplicity 1
 C         0.006030         0.082182         0.111552
 C         1.450451         0.415820        -0.069193
 O         2.205050         0.073073         1.154106
 C         3.196339         0.553845         0.130720
 C         2.392210        -0.262267        -0.914321
 C         2.594457         0.386115        -2.260039
 C         2.296822         1.845090        -1.930617
 C         2.238204         1.696077        -0.362370
 O         2.052932         2.894204         0.376376
 H        -0.439338         0.910405         0.740845
 H        -0.554354         0.105101        -0.751707
 H        -0.173155        -0.904433         0.593091
 H         4.369724         0.505030         0.314052
 H         2.616448        -1.360406        -0.882543
 H         3.628091         0.379457        -2.616070
 H         1.876754         0.084625        -3.091681
 H         2.957844         2.640783        -2.316226
 H         1.321403         2.148276        -2.369269
 H         2.058823         2.557333         1.290814
