19
Iteration:  1231
 C        -0.084927         0.253252         0.221036
 C         1.399512         0.423370        -0.032448
 O         2.288580         0.066087         1.095078
 C         3.196078         0.598095         0.142493
 C         2.524691        -0.323957        -0.970572
 C         2.703978         0.332600        -2.355982
 C         2.321459         1.820072        -1.916858
 C         2.205178         1.727777        -0.413555
 O         1.906862         2.795002         0.451805
 H        -0.449052         0.959773         0.907556
 H        -0.604929         0.415689        -0.786136
 H        -0.263817        -0.734506         0.637621
 H         4.331650         0.717925         0.346762
 H         2.515717        -1.431435        -0.925371
 H         3.621890         0.257774        -2.841145
 H         1.885629        -0.040588        -3.050223
 H         2.970525         2.638941        -2.374295
 H         1.305306         2.055033        -2.209206
 H         2.252271         2.550557         1.322178
