19
Iteration:   451charge 0 multiplicity 1
 C        -0.007219         0.173330         0.105275
 C         1.407377         0.432392        -0.010472
 O         2.272921         0.097059         1.127791
 C         3.239549         0.485530         0.063600
 C         2.465949        -0.308943        -0.992670
 C         2.551867         0.410592        -2.270609
 C         2.376236         1.807498        -1.824914
 C         2.253388         1.704660        -0.309102
 O         1.939283         2.883091         0.340098
 H        -0.519158         0.813108         0.820506
 H        -0.484825         0.242293        -0.962643
 H        -0.231099        -0.871980         0.434807
 H         4.306287         0.436194         0.329049
 H         2.541085        -1.440875        -0.704287
 H         3.498558         0.316294        -2.761824
 H         1.701830         0.161114        -3.014665
 H         3.126624         2.530686        -1.992293
 H         1.403048         2.182539        -2.174001
 H         1.704384         2.633105         1.270357
