19
Iteration:  2416
 C        -0.125357         0.146696         0.004419
 C         1.400283         0.332446        -0.043794
 O         2.275870         0.130682         1.204634
 C         3.233229         0.611655         0.140618
 C         2.428830        -0.339642        -0.950367
 C         2.649345         0.448582        -2.318471
 C         2.221855         1.839670        -1.854993
 C         2.229483         1.627794        -0.348794
 O         2.087728         2.837914         0.403378
 H        -0.493212         0.999578         0.543732
 H        -0.495606         0.371234        -1.033422
 H        -0.410105        -0.872006         0.351154
 H         4.304853         0.621057         0.261250
 H         2.617026        -1.458926        -0.827210
 H         3.656726         0.272380        -2.669356
 H         1.920249         0.137798        -3.147444
 H         2.840332         2.731219        -2.069138
 H         1.222967         2.060582        -2.121923
 H         2.453185         2.774077         1.311901
