19
Iteration:  3436charge 0 multiplicity 1
 C        -0.056602        -0.035160        -0.061861
 C         1.468944         0.374167        -0.064721
 O         2.192091         0.204181         1.198481
 C         3.290927         0.612470         0.148749
 C         2.473185        -0.329883        -0.882713
 C         2.354988         0.361285        -2.271630
 C         2.419844         1.876800        -1.912662
 C         2.318913         1.754370        -0.355303
 O         2.034640         2.885640         0.432245
 H        -0.666693         0.468212         0.763126
 H        -0.559808         0.028312        -1.067652
 H         0.028913        -1.070211         0.069391
 H         4.325411         0.382355         0.381175
 H         2.395281        -1.404205        -0.674223
 H         3.101234         0.041819        -2.946599
 H         1.294433         0.268001        -2.570187
 H         3.374445         2.501365        -2.343284
 H         1.660232         2.413833        -2.426078
 H         2.064648         2.716634         1.396012
