19
Iteration:   146
 C         0.002672         0.295441         0.168976
 C         1.409243         0.400601        -0.152813
 O         2.193897         0.162303         1.178351
 C         3.175966         0.553248         0.066123
 C         2.536894        -0.335220        -0.962268
 C         2.677668         0.370443        -2.285508
 C         2.271850         1.830867        -1.829711
 C         2.286717         1.706274        -0.390776
 O         1.925515         2.710878         0.416422
 H        -0.173458         1.045969         0.856501
 H        -0.569101         0.454659        -0.818761
 H        -0.252121        -0.651570         0.542177
 H         4.254391         0.671615         0.220447
 H         2.772265        -1.429955        -0.832508
 H         3.621760         0.348989        -2.796996
 H         1.964435        -0.141138        -3.006456
 H         2.975392         2.573607        -2.140622
 H         1.273819         2.244739        -2.270542
 H         1.772126         2.194159         1.230368
