19
Iteration:  3333
 C        -0.166043         0.304970         0.247018
 C         1.350255         0.287658        -0.076513
 O         2.308431         0.153195         1.147914
 C         3.234824         0.581401         0.017737
 C         2.486068        -0.322538        -0.911313
 C         2.764954         0.433183        -2.299951
 C         2.323578         1.877215        -1.905751
 C         2.169315         1.665431        -0.391950
 O         1.915013         2.692609         0.365701
 H        -0.238664         1.088606         0.947699
 H        -0.610236         0.468098        -0.745499
 H        -0.513054        -0.568204         0.902607
 H         4.343158         0.623844         0.208906
 H         2.906329        -1.375055        -0.939608
 H         3.868832         0.269736        -2.631480
 H         2.114999         0.036004        -3.118222
 H         3.157758         2.505272        -1.954529
 H         1.362449         2.202819        -2.475512
 H         1.956682         2.427015         1.299921
