19
Iteration:  1321charge 0 multiplicity 1
 C        -0.035737         0.046851        -0.012929
 C         1.409897         0.369024         0.000941
 O         2.229503         0.145290         1.203532
 C         3.203650         0.644697         0.119869
 C         2.508565        -0.245574        -0.926084
 C         2.383819         0.373819        -2.248467
 C         2.388742         1.882241        -1.919061
 C         2.219788         1.687567        -0.354847
 O         2.089436         2.826752         0.387050
 H        -0.657681         0.682594         0.678407
 H        -0.392055         0.129071        -0.982638
 H        -0.219912        -1.041323         0.312744
 H         4.396370         0.669789         0.331965
 H         2.785841        -1.268996        -0.844361
 H         3.165642         0.110919        -2.932144
 H         1.530405        -0.060704        -2.727853
 H         3.256286         2.447171        -2.305066
 H         1.403820         2.270041        -2.198601
 H         2.567350         2.554311         1.176677
