19
Iteration:  4890
 C        -0.025486         0.207109         0.137886
 C         1.412270         0.330745        -0.047150
 O         2.173468         0.115203         1.172327
 C         3.220502         0.547518         0.112530
 C         2.633912        -0.303375        -1.008503
 C         2.569279         0.378675        -2.376050
 C         2.380134         1.857807        -1.838677
 C         2.150089         1.638700        -0.396620
 O         1.952901         2.850046         0.435295
 H        -0.271948         0.646599         1.116249
 H        -0.709359         0.755037        -0.550857
 H        -0.369711        -0.797958         0.159206
 H         4.231884         0.789555         0.351258
 H         2.780909        -1.423567        -0.954026
 H         3.460244         0.328920        -2.997117
 H         1.811651         0.062108        -3.059778
 H         3.244237         2.420873        -1.901130
 H         1.475631         2.462739        -2.398521
 H         2.117551         2.565255         1.379095
