19
Iteration:   249
 C        -0.050902         0.024341         0.028306
 C         1.404309         0.336940        -0.090201
 O         2.231344         0.212029         1.148159
 C         3.217916         0.678057         0.135153
 C         2.493079        -0.389777        -0.956786
 C         2.469009         0.359230        -2.304097
 C         2.408017         1.908012        -1.820419
 C         2.144402         1.704375        -0.355955
 O         2.123954         2.840439         0.419368
 H        -0.565579         0.785669         0.751986
 H        -0.477591         0.177041        -0.937386
 H        -0.305378        -1.028259         0.413851
 H         4.207742         0.993292         0.524954
 H         2.388711        -1.428297        -0.809914
 H         3.322848         0.144836        -3.059039
 H         1.559018         0.127630        -2.792712
 H         3.406810         2.468435        -1.955907
 H         1.536775         2.263894        -2.267314
 H         2.100900         2.349824         1.285663
