19
Iteration:  2176charge 0 multiplicity 1
 C        -0.002836        -0.021261         0.107701
 C         1.395936         0.366939        -0.100581
 O         2.200047         0.181886         1.173415
 C         3.138034         0.587161         0.250412
 C         2.485947        -0.305722        -1.055860
 C         2.393257         0.485296        -2.348772
 C         2.499688         1.893491        -1.862388
 C         2.249478         1.714477        -0.357244
 O         2.070202         2.797512         0.389831
 H        -0.417130         0.585976         0.845094
 H        -0.752124         0.013540        -0.747880
 H        -0.015314        -1.071152         0.384061
 H         4.171459         0.671848         0.560601
 H         2.664509        -1.480439        -0.943177
 H         3.216048         0.274716        -3.072496
 H         1.448272         0.262157        -2.833035
 H         3.429022         2.519367        -1.988536
 H         1.649883         2.508784        -2.257589
 H         2.251752         2.547032         1.307677
