19
Iteration:   323
 C        -0.105626         0.290335         0.147264
 C         1.396705         0.294635         0.032038
 O         2.245229         0.046434         1.161933
 C         3.284525         0.509878         0.148020
 C         2.630293        -0.333731        -0.975694
 C         2.617409         0.431999        -2.344498
 C         2.252124         1.900276        -1.939006
 C         2.212615         1.640677        -0.329856
 O         1.945798         2.825722         0.345256
 H        -0.378969         1.126380         0.777975
 H        -0.464212         0.571918        -0.834466
 H        -0.612682        -0.585026         0.572758
 H         4.308182         0.804963         0.494902
 H         2.712604        -1.382794        -0.951884
 H         3.681674         0.252196        -2.809810
 H         2.033628        -0.002127        -3.122924
 H         2.919594         2.796248        -2.328239
 H         1.171164         2.264091        -2.202156
 H         2.001215         2.525175         1.297184
