19
Iteration:  1015charge 0 multiplicity 1
 C        -0.020507         0.432729         0.063535
 C         1.444496         0.323337        -0.059206
 O         2.319839         0.035956         1.167625
 C         3.229252         0.594897         0.019643
 C         2.564634        -0.324511        -0.954392
 C         2.608644         0.365215        -2.258714
 C         2.194252         1.802906        -1.940241
 C         2.283411         1.739048        -0.348380
 O         1.863048         2.754501         0.531549
 H        -0.560292         1.133691         0.618893
 H        -0.448560         0.531349        -0.964855
 H        -0.486021        -0.503361         0.376473
 H         4.293581         0.549463         0.405013
 H         2.855363        -1.402679        -0.967169
 H         3.750904         0.434049        -2.752287
 H         1.997297        -0.237429        -2.918732
 H         2.908004         2.495474        -2.335017
 H         1.201409         1.969694        -2.444734
 H         1.797424         2.319722         1.402474
