19
Iteration:  2152charge 0 multiplicity 1
 C        -0.078999         0.041450         0.098184
 C         1.333491         0.374288        -0.019108
 O         2.245826         0.113766         1.110365
 C         3.245540         0.573581        -0.005526
 C         2.455888        -0.296902        -0.982088
 C         2.554251         0.370846        -2.251806
 C         2.357664         1.913061        -1.895645
 C         2.212675         1.766035        -0.286234
 O         2.086778         2.867513         0.490642
 H        -0.748885         0.659149         0.702249
 H        -0.457420         0.122303        -0.931033
 H        -0.233706        -0.989698         0.226103
 H         4.322801         0.542330         0.020125
 H         2.691370        -1.481753        -1.003442
 H         3.507023         0.208864        -2.645211
 H         1.800254        -0.106454        -2.965145
 H         3.317860         2.519336        -2.066683
 H         1.590057         2.431856        -2.382356
 H         1.808549         2.634161         1.408663
