19
Iteration:   981charge 0 multiplicity 1
 C        -0.079843         0.140265         0.014980
 C         1.415490         0.310995        -0.100324
 O         2.278100         0.218213         1.285956
 C         3.172381         0.539581         0.133041
 C         2.512042        -0.323521        -0.976270
 C         2.543585         0.442057        -2.246585
 C         2.301523         1.913424        -1.868398
 C         2.224074         1.663625        -0.379608
 O         2.051700         2.741815         0.385566
 H        -0.459997         0.814882         0.718037
 H        -0.611853         0.297897        -0.995118
 H        -0.252624        -0.882597         0.249121
 H         4.329764         0.536068         0.280830
 H         2.784907        -1.421312        -1.025976
 H         3.437748         0.469929        -3.067530
 H         1.671955         0.253558        -2.845290
 H         3.055248         2.614497        -2.193476
 H         1.331035         2.273252        -2.246329
 H         2.252060         2.587753         1.334180
