19
Iteration:  2090
 C        -0.042959         0.337320         0.070967
 C         1.503780         0.350054        -0.084263
 O         2.232265         0.014650         1.146854
 C         3.269092         0.599594         0.146022
 C         2.590240        -0.343845        -0.975112
 C         2.576938         0.384716        -2.396730
 C         2.168907         1.870246        -1.868840
 C         2.207960         1.647070        -0.323634
 O         1.983244         2.798790         0.501609
 H        -0.366320         1.168018         0.657589
 H        -0.347617         0.622349        -1.002732
 H        -0.503803        -0.615037         0.415370
 H         4.329705         0.720452         0.421531
 H         2.693360        -1.420330        -0.827190
 H         3.548986         0.365065        -3.039408
 H         1.819869        -0.116252        -2.976557
 H         2.829313         2.686122        -2.192297
 H         1.103528         2.054501        -2.231647
 H         2.044424         2.514441         1.450243
