19
Iteration:  3580
 C        -0.026383        -0.019120        -0.157288
 C         1.436595         0.438170        -0.068207
 O         2.306758         0.225980         1.194323
 C         3.248552         0.537742         0.134109
 C         2.485924        -0.362413        -0.880248
 C         2.315262         0.410016        -2.259829
 C         2.360703         1.902121        -1.866005
 C         2.244795         1.751775        -0.333015
 O         2.026531         2.821863         0.488252
 H        -0.631622         0.759652         0.317863
 H        -0.324501        -0.186984        -1.166713
 H        -0.145502        -1.010911         0.445165
 H         4.313405         0.553694         0.530502
 H         2.462125        -1.477126        -0.914082
 H         3.192610         0.162581        -2.818980
 H         1.447634         0.273725        -2.939932
 H         3.380396         2.379260        -2.195562
 H         1.721444         2.455255        -2.521899
 H         2.350517         2.576117         1.383876
