19
Iteration:  2333charge 0 multiplicity 1
 C        -0.089234         0.075979         0.078401
 C         1.432652         0.352405        -0.031997
 O         2.262237         0.098823         1.197733
 C         3.205893         0.557803         0.100992
 C         2.492576        -0.316822        -1.010491
 C         2.477782         0.449997        -2.274557
 C         2.473609         1.935772        -1.799404
 C         2.206722         1.665256        -0.334108
 O         1.997176         2.833607         0.306156
 H        -0.487236         0.731716         0.845090
 H        -0.491689         0.219986        -0.910746
 H        -0.418030        -0.909942         0.426570
 H         4.283704         0.689131         0.331137
 H         2.514372        -1.353326        -0.980682
 H         3.356917         0.128404        -2.934092
 H         1.592856         0.220978        -2.819641
 H         3.361509         2.507141        -2.020399
 H         1.614945         2.628086        -2.164923
 H         2.008479         2.715135         1.285821
