19
Iteration:  3004
 C        -0.038857         0.263955         0.135114
 C         1.503269         0.402108        -0.034785
 O         2.323712         0.107266         1.167478
 C         3.243835         0.590605         0.120364
 C         2.466546        -0.306854        -0.961025
 C         2.578407         0.322445        -2.443630
 C         2.423090         1.833585        -1.898792
 C         2.163767         1.700465        -0.320267
 O         1.771777         2.764127         0.451817
 H        -0.235806         1.154521         0.677818
 H        -0.382415         0.255675        -0.879132
 H        -0.242734        -0.692668         0.681911
 H         4.327373         0.552575         0.383614
 H         2.572037        -1.328328        -0.706178
 H         3.544478         0.256247        -2.968190
 H         1.910277        -0.067493        -3.209210
 H         3.335144         2.316342        -2.075045
 H         1.691670         2.429599        -2.536405
 H         1.748901         2.645819         1.428256
