19
Iteration:  1180
 C        -0.093460         0.334713         0.050487
 C         1.408172         0.363189        -0.015490
 O         2.313124         0.092900         1.210584
 C         3.326027         0.556131         0.112979
 C         2.507322        -0.321982        -0.943863
 C         2.611109         0.397854        -2.364694
 C         2.227467         1.843434        -1.862791
 C         2.249419         1.646577        -0.369965
 O         1.900884         2.761951         0.398658
 H        -0.429596         1.145705         0.778264
 H        -0.558095         0.514457        -0.904838
 H        -0.323078        -0.659082         0.616564
 H         4.433376         0.549320         0.276022
 H         2.729055        -1.351074        -0.872367
 H         3.648410         0.331329        -2.890109
 H         2.007673        -0.127576        -3.046727
 H         2.870479         2.597411        -2.196532
 H         1.200046         2.056250        -2.276592
 H         2.048631         2.566009         1.357974
