19
Iteration:  1569charge 0 multiplicity 1
 C         0.027810         0.341434         0.196995
 C         1.454439         0.262678        -0.079078
 O         2.263411         0.106048         1.148582
 C         3.149422         0.598971         0.112155
 C         2.508898        -0.355203        -0.955670
 C         2.639328         0.347876        -2.267281
 C         2.305925         1.922530        -1.866348
 C         2.197103         1.658687        -0.454310
 O         1.932877         2.747044         0.383462
 H        -0.180920         1.154963         0.935145
 H        -0.689905         0.746235        -0.632729
 H        -0.448464        -0.644095         0.589024
 H         4.136439         0.845965         0.204706
 H         2.646893        -1.462741        -0.789700
 H         3.635661         0.352161        -2.766237
 H         2.005449        -0.086313        -3.111876
 H         3.124274         2.673798        -2.134415
 H         1.431861         2.306419        -2.405883
 H         1.688393         2.275985         1.228085
