19
Iteration:  4772
 C        -0.039934         0.243070         0.034904
 C         1.471927         0.386354        -0.054310
 O         2.331892         0.079509         1.224024
 C         3.230300         0.574732         0.121430
 C         2.382650        -0.330245        -0.945163
 C         2.561416         0.421342        -2.315153
 C         2.340215         1.902863        -1.874386
 C         2.250785         1.705131        -0.400878
 O         1.894195         2.745535         0.419051
 H        -0.534184         1.105521         0.495907
 H        -0.443735         0.028030        -0.968047
 H        -0.021293        -0.521545         0.698549
 H         4.336657         0.466272         0.127084
 H         2.649376        -1.415810        -0.755834
 H         3.517302         0.035487        -2.627713
 H         1.923531         0.188854        -3.147611
 H         3.249028         2.418695        -1.972491
 H         1.564452         2.406221        -2.390348
 H         1.655158         2.391177         1.324354
