19
Iteration:  1612
 C        -0.058869         0.108801        -0.041183
 C         1.405350         0.348616        -0.065884
 O         2.349904         0.155248         1.194314
 C         3.209498         0.590363         0.086845
 C         2.481103        -0.409461        -0.876163
 C         2.428051         0.401719        -2.238405
 C         2.326106         1.888889        -1.802420
 C         2.267939         1.709639        -0.352531
 O         2.016700         2.863405         0.362736
 H        -0.495946         0.864757         0.609522
 H        -0.355279         0.466684        -1.115641
 H        -0.353459        -0.984880         0.107758
 H         4.197496         0.659485         0.415444
 H         2.620333        -1.525870        -0.708236
 H         3.322130         0.098796        -2.825091
 H         1.596847         0.040595        -2.906120
 H         3.145796         2.536820        -2.221047
 H         1.506539         2.522895        -2.197680
 H         2.127943         2.504364         1.276742
