19
Iteration:  1819
 C        -0.017955        -0.104271        -0.026335
 C         1.380632         0.388511        -0.066746
 O         2.191302         0.200072         1.137635
 C         3.222622         0.520899         0.136798
 C         2.400831        -0.265371        -0.925553
 C         2.436832         0.450847        -2.236130
 C         2.292242         1.915411        -1.856264
 C         2.300220         1.748206        -0.351852
 O         2.188132         2.836963         0.407778
 H        -0.636219         0.491528         0.564011
 H        -0.409853        -0.044254        -1.065827
 H        -0.192651        -1.149893         0.353683
 H         4.329549         0.512454         0.601359
 H         2.525622        -1.356092        -0.748908
 H         3.432348         0.369430        -2.730449
 H         1.706052         0.110364        -2.975642
 H         3.044710         2.698989        -2.017609
 H         1.380094         2.429032        -2.260333
 H         2.450462         2.643638         1.333118
