19
Iteration:    30charge 0 multiplicity 1
 C        -0.103708        -0.132222        -0.052693
 C         1.321348         0.424604        -0.042545
 O         2.339917         0.236206         1.221724
 C         3.154086         0.596365         0.138707
 C         2.437954        -0.276175        -0.879749
 C         2.431677         0.353074        -2.302431
 C         2.379177         1.868229        -1.951635
 C         2.234429         1.762394        -0.360963
 O         2.148694         2.896698         0.468434
 H        -0.920028         0.318783         0.649239
 H        -0.489938        -0.072545        -1.097170
 H        -0.145154        -1.231324         0.150572
 H         4.257296         0.576323         0.336147
 H         2.715506        -1.303233        -0.711972
 H         3.504225         0.167114        -2.711163
 H         1.774246        -0.012994        -3.059376
 H         3.360408         2.418528        -2.297397
 H         1.603332         2.429127        -2.394786
 H         2.149288         2.584334         1.383919
