19
Iteration:  3783charge 0 multiplicity 1
 C         0.006956        -0.144909         0.079094
 C         1.330348         0.341745        -0.134869
 O         2.166045         0.103049         1.109125
 C         3.116621         0.545405         0.112385
 C         2.463902        -0.281814        -0.985020
 C         2.479416         0.478536        -2.360677
 C         2.441770         1.875771        -1.843524
 C         2.237014         1.772108        -0.310964
 O         2.172632         2.997691         0.502494
 H        -0.644470         0.574286         0.697142
 H        -0.487733        -0.401198        -0.867776
 H         0.070698        -0.990993         0.723627
 H         4.185682         0.569101         0.315394
 H         2.400665        -1.391367        -0.763397
 H         3.455747         0.282618        -2.919146
 H         1.664983         0.118529        -2.923343
 H         3.416940         2.342121        -1.843570
 H         1.646641         2.566549        -2.417412
 H         1.845765         2.827361         1.401027
