19
Iteration:   336
 C        -0.118681         0.266203         0.097685
 C         1.396089         0.320473        -0.074570
 O         2.360729         0.087602         1.205505
 C         3.112488         0.599021         0.138633
 C         2.538804        -0.312592        -0.980147
 C         2.645782         0.438800        -2.290145
 C         2.255341         1.854562        -1.811558
 C         2.182276         1.621858        -0.389764
 O         2.027797         2.774046         0.338692
 H        -0.495085         1.068312         0.780629
 H        -0.521064         0.379008        -0.843413
 H        -0.432008        -0.772049         0.382080
 H         4.193855         0.634869         0.368719
 H         2.835246        -1.299071        -0.968284
 H         3.627333         0.400352        -2.927534
 H         1.820116         0.090282        -2.818420
 H         3.013030         2.683894        -2.104272
 H         1.267418         1.996599        -2.264395
 H         2.216570         2.709083         1.274356
