19
Iteration:  1288charge 0 multiplicity 1
 C        -0.092742        -0.141159        -0.082721
 C         1.375808         0.412591         0.033596
 O         2.259073         0.224277         1.245008
 C         3.265931         0.564709         0.124024
 C         2.471320        -0.276101        -0.898949
 C         2.307793         0.361988        -2.347339
 C         2.416895         1.897824        -1.838232
 C         2.266742         1.720422        -0.329871
 O         2.170230         2.950326         0.382519
 H        -0.797072         0.387280         0.596497
 H        -0.454709        -0.064995        -1.082185
 H        -0.031460        -1.242520         0.231105
 H         4.433335         0.543051         0.188614
 H         2.581963        -1.332212        -0.942803
 H         3.077386         0.077855        -3.052418
 H         1.381278         0.037107        -2.760686
 H         3.314913         2.264946        -2.276984
 H         1.618671         2.487613        -2.251142
 H         1.758051         2.721320         1.259765
