19
Iteration:  3421charge 0 multiplicity 1
 C        -0.026977        -0.037746        -0.125037
 C         1.372908         0.428234         0.016478
 O         2.299811         0.159522         1.149257
 C         3.198422         0.619604         0.154497
 C         2.495766        -0.267250        -0.847684
 C         2.298567         0.325824        -2.231235
 C         2.393581         1.858092        -1.847630
 C         2.270842         1.738191        -0.360262
 O         2.109524         2.892771         0.397550
 H        -0.834983         0.529178         0.345490
 H        -0.268300         0.157239        -1.223976
 H        -0.176774        -1.120169         0.115154
 H         4.196028         0.911062         0.496416
 H         2.745001        -1.353710        -0.898687
 H         3.086266         0.063030        -3.018774
 H         1.424467        -0.095212        -2.764306
 H         3.388902         2.164320        -2.083194
 H         1.599586         2.583237        -2.257826
 H         2.142033         2.496309         1.305618
