19
Iteration:  4908charge 0 multiplicity 1
 C        -0.079132         0.316391         0.165556
 C         1.424118         0.315889        -0.174269
 O         2.324054         0.055764         1.107614
 C         3.195312         0.557276         0.123962
 C         2.615787        -0.356706        -0.970716
 C         2.626083         0.423664        -2.274233
 C         2.376966         1.877910        -1.890422
 C         2.156735         1.701439        -0.316073
 O         1.860640         2.785210         0.401233
 H        -0.300933         0.814178         1.150473
 H        -0.726566         0.899579        -0.536862
 H        -0.644725        -0.672828         0.392869
 H         4.265453         0.532364         0.423023
 H         2.762550        -1.392273        -0.849529
 H         3.444336         0.134163        -2.946763
 H         1.721404        -0.040826        -2.777096
 H         3.280087         2.540134        -2.153367
 H         1.556525         2.336374        -2.305669
 H         1.783026         2.502129         1.357258
