19
Iteration:  3116charge 0 multiplicity 1
 C        -0.024458         0.123657         0.034772
 C         1.432460         0.342531        -0.001634
 O         2.269782         0.190417         1.192291
 C         3.260361         0.608215         0.144561
 C         2.556191        -0.255601        -0.909580
 C         2.471050         0.362173        -2.349908
 C         2.347688         1.855391        -1.836153
 C         2.171817         1.638490        -0.382907
 O         2.027425         2.782891         0.355201
 H        -0.605479         0.631509         0.768738
 H        -0.506041         0.441149        -0.906092
 H        -0.460572        -0.932530         0.129517
 H         4.266137         0.889361         0.420628
 H         2.837653        -1.336720        -0.840662
 H         3.199785         0.292641        -3.156038
 H         1.546948        -0.061140        -2.918171
 H         3.176261         2.591416        -1.789884
 H         1.479274         2.472879        -2.179582
 H         1.621891         2.482412         1.191267
