19
Iteration:  3788
 C        -0.016092        -0.161741         0.105588
 C         1.327153         0.378409        -0.105487
 O         2.131470         0.083607         1.125368
 C         3.151804         0.582054         0.081840
 C         2.436494        -0.285551        -1.005518
 C         2.529670         0.466119        -2.347914
 C         2.437344         1.860113        -1.822413
 C         2.249500         1.759629        -0.338819
 O         2.160676         2.983162         0.488755
 H        -0.573916         0.607445         0.583551
 H        -0.552616        -0.312283        -0.840391
 H        -0.060495        -1.090409         0.792836
 H         4.233977         0.717260         0.285216
 H         2.597248        -1.341443        -0.829837
 H         3.379849         0.392803        -3.008407
 H         1.607978         0.176332        -2.996719
 H         3.407469         2.461709        -1.939389
 H         1.789698         2.522658        -2.251972
 H         1.989533         2.756906         1.438611
