19
Iteration:  1841charge 0 multiplicity 1
 C        -0.074033        -0.062658         0.084109
 C         1.352656         0.311408        -0.113754
 O         2.150244         0.134919         1.267731
 C         3.122898         0.588659         0.118362
 C         2.515717        -0.308231        -1.018243
 C         2.500470         0.473828        -2.356914
 C         2.376741         1.923813        -1.866044
 C         2.191740         1.673406        -0.344312
 O         2.251942         2.910471         0.400481
 H        -0.618916         0.593966         0.693002
 H        -0.467064        -0.110357        -0.918453
 H        -0.084324        -1.093729         0.564502
 H         4.227450         0.864107         0.450364
 H         2.742386        -1.388446        -0.950540
 H         3.339617         0.512011        -3.048271
 H         1.663532         0.002066        -2.839367
 H         3.154297         2.648174        -1.918425
 H         1.501839         2.511995        -2.241396
 H         2.158508         2.676332         1.347004
