19
Iteration:  1968charge 0 multiplicity 1
 C        -0.108230         0.073024        -0.007285
 C         1.397702         0.380475        -0.035866
 O         2.286710         0.142727         1.193768
 C         3.255661         0.536552         0.129087
 C         2.374144        -0.290673        -0.968889
 C         2.533095         0.479763        -2.263700
 C         2.260003         1.917349        -1.796253
 C         2.311335         1.653685        -0.335178
 O         2.088023         2.799261         0.358798
 H        -0.611080         0.744496         0.690743
 H        -0.341838         0.279273        -1.115049
 H        -0.155588        -1.019864         0.062373
 H         4.317557         0.499704         0.233016
 H         2.513036        -1.425136        -0.896898
 H         3.575805         0.208152        -2.636306
 H         1.815845         0.268145        -3.080182
 H         3.010650         2.716011        -2.119809
 H         1.227188         2.167694        -2.071286
 H         2.254414         2.632162         1.301310
