19
Iteration:  1142
 C        -0.082772        -0.000233        -0.046193
 C         1.434355         0.337836        -0.020279
 O         2.224925         0.200841         1.245221
 C         3.245632         0.637300         0.109379
 C         2.530767        -0.298504        -0.941751
 C         2.436867         0.358791        -2.349899
 C         2.320533         1.853818        -1.848115
 C         2.218180         1.691956        -0.321733
 O         2.138015         2.891471         0.401367
 H        -0.679972         0.565777         0.658423
 H        -0.659391         0.019914        -1.058346
 H        -0.224807        -1.007697         0.229238
 H         4.349099         0.604242         0.348740
 H         2.681953        -1.447510        -0.822491
 H         3.189207         0.180198        -3.048419
 H         1.411744         0.198449        -2.829432
 H         3.246400         2.512307        -2.066847
 H         1.522254         2.517707        -2.171019
 H         2.005181         2.557441         1.309915
