19
Iteration:  3956charge 0 multiplicity 1
 C        -0.029621        -0.160001         0.117457
 C         1.327739         0.325030        -0.117986
 O         2.194190         0.114588         1.203816
 C         3.105466         0.599173         0.166337
 C         2.463552        -0.257149        -0.985207
 C         2.495951         0.537518        -2.352681
 C         2.482235         1.996035        -1.808616
 C         2.181047         1.701668        -0.418319
 O         2.171735         2.830119         0.381751
 H        -0.503222         0.784032         0.612084
 H        -0.599508        -0.259215        -0.874725
 H        -0.064731        -1.081981         0.648480
 H         4.181970         0.613584         0.486375
 H         2.343967        -1.378625        -0.888838
 H         3.431502         0.465779        -2.947940
 H         1.639697         0.321982        -2.972796
 H         3.380175         2.550602        -1.780078
 H         1.699414         2.628115        -2.295950
 H         2.204849         2.477354         1.298494
