19
Iteration:  2543charge 0 multiplicity 1
 C        -0.050156        -0.021297        -0.007035
 C         1.398546         0.291083        -0.085637
 O         2.233677         0.160997         1.191116
 C         3.126070         0.533273         0.138583
 C         2.528424        -0.308265        -0.960602
 C         2.386248         0.424764        -2.200851
 C         2.468793         1.951230        -1.856102
 C         2.196627         1.731355        -0.335385
 O         2.130935         2.928675         0.355029
 H        -0.896763         0.382733         0.698073
 H        -0.473085         0.109775        -1.011174
 H        -0.058232        -1.047572         0.233797
 H         4.199442         0.611608         0.486831
 H         2.846061        -1.390970        -0.962881
 H         3.028598         0.016364        -3.006403
 H         1.387493         0.161537        -2.528238
 H         3.518791         2.380420        -1.921557
 H         1.688157         2.503915        -2.487570
 H         2.158696         2.762556         1.313888
