19
Iteration:  4984
 C         0.027771         0.033124        -0.046065
 C         1.375758         0.367148        -0.038969
 O         2.155880         0.121574         1.223716
 C         3.152641         0.592626         0.133572
 C         2.520360        -0.251384        -0.957934
 C         2.497417         0.427528        -2.377772
 C         2.267871         1.848434        -1.896403
 C         2.180309         1.722987        -0.307099
 O         2.225738         2.845895         0.490141
 H        -0.648957         0.820524         0.351208
 H        -0.345650        -0.107499        -1.093594
 H        -0.205076        -0.954375         0.502919
 H         4.187145         0.959361         0.421275
 H         2.714709        -1.277391        -0.914165
 H         3.377124         0.226041        -3.016971
 H         1.717752        -0.197883        -2.896240
 H         3.110257         2.642168        -2.130388
 H         1.362318         2.258085        -2.244104
 H         2.245956         2.412857         1.360956
