19
Iteration:  1724charge 0 multiplicity 1
 C         0.013761         0.299436         0.149958
 C         1.407078         0.382684        -0.039662
 O         2.303005         0.024314         1.145656
 C         3.247876         0.590564         0.039748
 C         2.455676        -0.358353        -0.932027
 C         2.616063         0.426419        -2.291974
 C         2.394265         1.899004        -1.866957
 C         2.212630         1.649373        -0.412149
 O         1.832285         2.794057         0.406197
 H        -0.327383         1.005359         0.986030
 H        -0.552025         0.506443        -0.719042
 H        -0.343565        -0.671023         0.608024
 H         4.243362         0.492474         0.221281
 H         2.704591        -1.428115        -0.897956
 H         3.574222         0.132963        -2.623485
 H         1.832385         0.048354        -3.041073
 H         3.189865         2.571173        -2.200333
 H         1.512893         2.325569        -2.360107
 H         1.715902         2.393894         1.299350
