19
Iteration:  4859
 C        -0.100436        -0.011576        -0.056969
 C         1.381387         0.397291        -0.048971
 O         2.323921         0.184504         1.216363
 C         3.205734         0.465727         0.099172
 C         2.427356        -0.303665        -0.910508
 C         2.527509         0.418610        -2.244422
 C         2.362462         1.913781        -1.872629
 C         2.250478         1.742897        -0.375187
 O         2.086137         2.894145         0.415085
 H        -0.688416         0.321772         0.790633
 H        -0.832709         0.221935        -0.815753
 H        -0.238114        -0.994028         0.155010
 H         4.310109         0.617668         0.070266
 H         2.398768        -1.455165        -0.816510
 H         3.523905         0.127274        -2.617411
 H         1.817596         0.173794        -3.026014
 H         3.123989         2.590114        -2.110937
 H         1.345274         2.394160        -2.187315
 H         1.918081         2.418505         1.239952
