19
Iteration:  1636
 C        -0.050088        -0.062832        -0.105718
 C         1.376957         0.420067         0.089091
 O         2.241768         0.182570         1.287510
 C         3.224984         0.594851         0.077465
 C         2.488377        -0.234959        -0.951734
 C         2.457587         0.363171        -2.345989
 C         2.273835         1.841580        -1.855188
 C         2.172062         1.697515        -0.316590
 O         2.239431         2.871056         0.396711
 H        -0.663701         0.717276         0.502900
 H        -0.220764         0.220175        -1.175274
 H        -0.239521        -1.206421         0.102717
 H         4.227941         0.622196         0.316362
 H         2.590215        -1.370978        -1.042177
 H         3.221741         0.019458        -3.046064
 H         1.461414        -0.015547        -2.837791
 H         3.111071         2.556089        -2.059171
 H         1.530900         2.567904        -2.195390
 H         1.849954         2.746802         1.267974
