19
Iteration:  4982
 C         0.013784         0.045132        -0.051618
 C         1.372225         0.349040        -0.038021
 O         2.156375         0.117256         1.219135
 C         3.149337         0.606190         0.128572
 C         2.521632        -0.240615        -0.947083
 C         2.500680         0.427347        -2.368891
 C         2.267386         1.846253        -1.903695
 C         2.206451         1.713281        -0.289188
 O         2.215233         2.840056         0.481770
 H        -0.694166         0.802710         0.384012
 H        -0.307739        -0.060299        -1.045283
 H        -0.178061        -0.906928         0.524728
 H         4.247302         0.982806         0.383247
 H         2.713536        -1.311889        -0.899945
 H         3.373782         0.248527        -3.053998
 H         1.734382        -0.171421        -2.914926
 H         3.102329         2.647477        -2.151816
 H         1.325592         2.281031        -2.287576
 H         2.245888         2.357623         1.360809
