19
Iteration:  3138
 C        -0.024792         0.268074         0.124054
 C         1.466619         0.269716        -0.107764
 O         2.328484         0.087991         1.137011
 C         3.261788         0.588707         0.100417
 C         2.540480        -0.370232        -0.911807
 C         2.541251         0.409578        -2.276177
 C         2.429436         1.817069        -1.912819
 C         2.207907         1.727995        -0.410653
 O         1.763866         2.865430         0.455263
 H        -0.236797         1.007666         0.880506
 H        -0.711673         0.507982        -0.713933
 H        -0.384269        -0.723364         0.571354
 H         4.318885         0.665137         0.345604
 H         2.694003        -1.486234        -0.854456
 H         3.391484         0.197507        -2.937598
 H         1.644672         0.036543        -2.897428
 H         3.331614         2.415473        -2.207687
 H         1.553621         2.317134        -2.392200
 H         1.732578         2.419232         1.333654
