19
Iteration:  1506
 C        -0.093979         0.020439         0.051798
 C         1.357621         0.283617        -0.062121
 O         2.220767         0.164175         1.118381
 C         3.205336         0.589618         0.128847
 C         2.528659        -0.320488        -0.963229
 C         2.500169         0.404265        -2.267092
 C         2.275819         1.842358        -1.806396
 C         2.323734         1.795715        -0.365182
 O         2.123484         2.928436         0.375377
 H        -0.522596         0.783185         0.763872
 H        -0.546228         0.044300        -0.909920
 H        -0.228216        -0.986661         0.578652
 H         4.341129         0.553741         0.420417
 H         2.549605        -1.431652        -0.733191
 H         3.471010         0.181446        -2.726723
 H         1.770115        -0.117050        -3.003659
 H         3.169460         2.378307        -2.235376
 H         1.289503         2.245189        -2.099743
 H         1.918459         2.633428         1.310099
