19
Iteration:  2264
 C        -0.048538         0.254336         0.017328
 C         1.411574         0.306038        -0.191126
 O         2.231062         0.201605         1.144953
 C         3.279099         0.530571         0.164462
 C         2.575708        -0.358147        -0.921546
 C         2.600837         0.403735        -2.251530
 C         2.115304         1.932896        -1.799425
 C         2.242399         1.614275        -0.388733
 O         2.059067         2.734149         0.428924
 H        -0.061242         1.019291         0.726983
 H        -0.677409         0.434688        -0.899529
 H        -0.382437        -0.625797         0.593942
 H         4.270861         0.810057         0.523334
 H         2.472660        -1.469590        -1.178874
 H         3.651632         0.538905        -2.625706
 H         2.048532        -0.154358        -3.012757
 H         2.719828         2.769819        -2.197802
 H         1.079270         2.141421        -2.184568
 H         2.007994         2.497219         1.386667
