19
Iteration:  2955
 C        -0.046575         0.228353         0.066673
 C         1.503257         0.292499        -0.063548
 O         2.231021         0.196562         1.207338
 C         3.250580         0.561572         0.182390
 C         2.585015        -0.317755        -0.989494
 C         2.475200         0.388151        -2.331321
 C         2.305690         1.814769        -1.886944
 C         2.242363         1.647816        -0.390904
 O         1.911638         2.820287         0.421767
 H        -0.355015         1.094326         0.737249
 H        -0.467353         0.239058        -0.962829
 H        -0.222201        -0.812521         0.436034
 H         4.257519         0.765961         0.561746
 H         2.600690        -1.447532        -1.163553
 H         3.412394         0.238883        -2.886230
 H         1.693218         0.013858        -3.038846
 H         3.319139         2.418693        -1.983374
 H         1.504921         2.461098        -2.268864
 H         2.069129         2.516461         1.331088
