19
Iteration:  2466charge 0 multiplicity 1
 C        -0.073193         0.303667         0.113846
 C         1.408318         0.318328         0.010744
 O         2.294701         0.106792         1.152435
 C         3.132617         0.564694         0.122450
 C         2.552976        -0.324480        -1.017118
 C         2.645472         0.415225        -2.361134
 C         2.278775         1.824557        -1.839955
 C         2.241839         1.641505        -0.368844
 O         2.005615         2.766804         0.408194
 H        -0.411295         1.171183         0.798579
 H        -0.462451         0.543247        -0.868305
 H        -0.438819        -0.600766         0.498301
 H         4.197491         0.619430         0.461808
 H         2.729880        -1.418255        -0.952953
 H         3.721347         0.489922        -2.667844
 H         2.120209        -0.085196        -3.171771
 H         2.947082         2.691402        -2.158436
 H         1.200068         2.222035        -1.946469
 H         1.240313         2.602823         0.984952
