19
Iteration:  4544charge 0 multiplicity 1
 C        -0.040188         0.204532         0.134807
 C         1.381672         0.412235        -0.129525
 O         2.218938         0.157778         1.184749
 C         3.224360         0.572999         0.119878
 C         2.560958        -0.353094        -1.022684
 C         2.654256         0.346755        -2.339431
 C         2.281728         1.865062        -1.827524
 C         2.266972         1.686036        -0.384733
 O         1.940922         2.791362         0.440606
 H        -0.424507         1.007379         0.784553
 H        -0.671720         0.180685        -0.765596
 H        -0.196345        -0.712012         0.587126
 H         4.274101         0.423809         0.420771
 H         2.667877        -1.490500        -0.883493
 H         3.527893         0.444575        -2.898973
 H         1.968266        -0.041902        -3.086014
 H         3.065850         2.614607        -2.217817
 H         1.298627         2.143602        -2.083154
 H         1.859817         2.573349         1.394269
