19
Iteration:  4051
 C         0.013243         0.328574        -0.009676
 C         1.473069         0.370384        -0.086597
 O         2.316827         0.062874         1.176045
 C         3.213559         0.558733         0.156903
 C         2.548961        -0.364111        -0.949808
 C         2.606004         0.442599        -2.325678
 C         2.188529         1.836705        -1.891685
 C         2.152486         1.687103        -0.391299
 O         1.931480         2.733766         0.519351
 H        -0.188602         1.016806         0.779516
 H        -0.473514         0.848743        -0.863547
 H        -0.412524        -0.641117         0.122441
 H         4.297772         0.732773         0.397609
 H         2.513083        -1.446261        -0.883907
 H         3.566085         0.469253        -2.793435
 H         1.794863        -0.010060        -2.972925
 H         3.073204         2.525291        -2.223884
 H         1.257654         2.275866        -2.218129
 H         2.133531         2.297969         1.375612
