19
Iteration:  1088
 C        -0.025946        -0.051821         0.081496
 C         1.351582         0.428254        -0.055523
 O         2.211815         0.134657         1.117578
 C         3.151293         0.633939         0.163640
 C         2.475842        -0.254112        -0.980256
 C         2.468297         0.331581        -2.319245
 C         2.412736         1.825679        -1.902257
 C         2.235109         1.716521        -0.364221
 O         2.115347         2.937670         0.471332
 H        -0.727310         0.419863         0.777007
 H        -0.723923        -0.041303        -0.891537
 H        -0.025907        -1.041672         0.463201
 H         4.278618         0.861905         0.294824
 H         2.726789        -1.380865        -0.955505
 H         3.301804         0.211026        -2.894762
 H         1.598526         0.077760        -2.904881
 H         3.472520         2.145662        -2.123661
 H         1.742448         2.580664        -2.185181
 H         2.178910         2.600201         1.382641
