19
Iteration:  2891
 C        -0.045532        -0.084872        -0.023479
 C         1.398286         0.265645        -0.015235
 O         2.142569         0.198526         1.236336
 C         3.254045         0.585256         0.158094
 C         2.418095        -0.364723        -0.890184
 C         2.537361         0.451846        -2.312528
 C         2.268961         1.960747        -1.839342
 C         2.206761         1.739533        -0.402985
 O         2.221517         2.938031         0.338980
 H        -0.697877         0.254918         0.818989
 H        -0.543579         0.170430        -0.962421
 H        -0.111291        -1.086455         0.184888
 H         4.356699         0.673136         0.377541
 H         2.431251        -1.516470        -0.932969
 H         3.559101         0.193166        -2.654299
 H         1.860488        -0.003088        -2.955563
 H         2.938703         2.800887        -2.193024
 H         1.274244         2.212253        -2.322915
 H         2.537263         2.627814         1.213470
