19
Iteration:   596
 C        -0.081586        -0.037231         0.111234
 C         1.324724         0.468399        -0.112313
 O         2.232574         0.171084         1.151552
 C         3.179919         0.557607         0.094734
 C         2.503877        -0.341125        -0.962095
 C         2.419968         0.418099        -2.273440
 C         2.474713         1.890251        -1.921148
 C         2.301903         1.698840        -0.305115
 O         2.028591         2.885385         0.429626
 H        -0.785288         0.371807         0.919554
 H        -0.493927         0.021426        -0.860141
 H         0.034620        -1.184133         0.241332
 H         4.262505         0.539709         0.278135
 H         2.635233        -1.350988        -0.773655
 H         3.409380         0.305879        -2.843525
 H         1.599610         0.194257        -2.856628
 H         3.509377         2.234168        -2.035288
 H         1.765294         2.545581        -2.453454
 H         2.282576         2.711734         1.370578
