19
Iteration:  4217
 C        -0.043576         0.284846         0.112509
 C         1.472270         0.333222        -0.031672
 O         2.178390         0.080401         1.183489
 C         3.283239         0.519686         0.065380
 C         2.610306        -0.297380        -0.941542
 C         2.621282         0.425555        -2.400069
 C         2.208921         1.830433        -1.893684
 C         2.268986         1.700486        -0.345548
 O         1.930729         2.770943         0.443196
 H        -0.410773         1.189662         0.744691
 H        -0.624237         0.530149        -0.825129
 H        -0.468166        -0.620944         0.420727
 H         4.343887         0.536380         0.417030
 H         2.666756        -1.418924        -0.807247
 H         3.597455         0.470123        -2.876895
 H         1.870036        -0.026891        -3.110169
 H         2.835374         2.767864        -2.228294
 H         1.184583         2.134405        -2.025365
 H         2.088030         2.391483         1.347420
