19
Iteration:  1440
 C        -0.106091         0.038785        -0.016129
 C         1.447849         0.413333        -0.052075
 O         2.331705         0.195566         1.235273
 C         3.242439         0.534579         0.074119
 C         2.456241        -0.280442        -0.894181
 C         2.457014         0.334139        -2.328480
 C         2.374206         1.818934        -1.918064
 C         2.278953         1.729388        -0.343581
 O         2.015017         2.920489         0.452525
 H        -0.598578         0.654394         0.716357
 H        -0.521355         0.114292        -0.965901
 H        -0.239017        -1.038870         0.287396
 H         4.338297         0.422542         0.428407
 H         2.417017        -1.378678        -0.891981
 H         3.234338         0.146058        -3.057732
 H         1.400379         0.123838        -2.754612
 H         3.239169         2.454240        -2.262459
 H         1.420192         2.203586        -2.230509
 H         1.848041         2.530161         1.339233
