19
Iteration:  2297charge 0 multiplicity 1
 C        -0.078970         0.210731         0.092923
 C         1.402154         0.381801         0.028466
 O         2.265047         0.095436         1.166635
 C         3.233437         0.531439         0.063268
 C         2.490281        -0.303174        -1.012598
 C         2.718426         0.369425        -2.315368
 C         2.229165         1.875281        -1.930293
 C         2.212588         1.695624        -0.337914
 O         2.001978         2.826992         0.492093
 H        -0.489395         1.055329         0.593142
 H        -0.490675         0.538158        -0.928704
 H        -0.496121        -0.803968         0.371743
 H         4.280243         0.739899         0.306511
 H         2.331201        -1.475674        -1.220220
 H         3.795791         0.291205        -2.663866
 H         2.076992        -0.108717        -3.038413
 H         2.799132         2.723702        -2.299456
 H         1.145511         1.796570        -2.258704
 H         2.177929         2.494094         1.410716
