19
Iteration:  4994
 C        -0.043446        -0.054676        -0.069029
 C         1.455964         0.431376        -0.051371
 O         2.184925         0.171911         1.192058
 C         3.160205         0.552930         0.151536
 C         2.531544        -0.313703        -0.991433
 C         2.478603         0.376957        -2.326762
 C         2.252493         1.909141        -1.828614
 C         2.116579         1.719446        -0.400143
 O         2.249017         2.887002         0.510124
 H        -0.573381         0.816518         0.377637
 H        -0.340954        -0.237961        -1.089897
 H        -0.204438        -1.044370         0.522843
 H         4.241578         0.549791         0.675488
 H         2.572726        -1.365207        -0.934378
 H         3.482875         0.261293        -2.789656
 H         1.555226         0.173293        -2.956902
 H         3.217621         2.563736        -2.156621
 H         1.373611         2.354157        -2.257445
 H         2.196500         2.677032         1.434765
