19
Iteration:  2390
 C        -0.084950         0.000428         0.013327
 C         1.380670         0.375403        -0.021990
 O         2.294932         0.204620         1.197073
 C         3.163279         0.558174         0.107574
 C         2.478160        -0.345985        -0.926817
 C         2.465520         0.429014        -2.304537
 C         2.402539         1.906243        -1.863916
 C         2.202586         1.697680        -0.397826
 O         2.055207         2.835821         0.438219
 H        -0.677724         0.787175         0.580235
 H        -0.285098         0.250593        -1.021971
 H        -0.258991        -1.029442         0.175256
 H         4.270946         0.538762         0.210501
 H         2.613835        -1.404871        -0.738116
 H         3.342760         0.237142        -2.925738
 H         1.573808         0.122298        -2.897097
 H         3.496640         2.218467        -1.932886
 H         1.754877         2.659683        -2.366038
 H         2.354851         2.667824         1.354094
