19
Iteration:   727
 C        -0.018080         0.052357         0.023042
 C         1.412665         0.393125        -0.022669
 O         2.220623         0.124697         1.092499
 C         3.284821         0.603423         0.158405
 C         2.427046        -0.243968        -0.907251
 C         2.451060         0.366285        -2.348559
 C         2.370822         1.881005        -1.944838
 C         2.211957         1.686040        -0.352552
 O         2.074675         2.828831         0.506038
 H        -0.581043         0.756615         0.715152
 H        -0.372377         0.225798        -0.945580
 H        -0.072098        -1.023916         0.340129
 H         4.332933         0.807818         0.419725
 H         2.508903        -1.200207        -0.559117
 H         3.464330         0.159624        -2.817672
 H         1.695210        -0.043464        -2.943339
 H         3.383116         2.201473        -2.107414
 H         1.616885         2.517292        -2.333434
 H         1.501853         2.628324         1.256053
