19
Iteration:  2733
 C        -0.046160        -0.084763        -0.018325
 C         1.365143         0.465792        -0.027677
 O         2.216040         0.178598         1.187610
 C         3.130089         0.549960         0.073009
 C         2.479629        -0.321039        -0.881016
 C         2.510330         0.492234        -2.211784
 C         2.309478         1.901846        -1.894753
 C         2.195023         1.673872        -0.372959
 O         2.206816         2.864981         0.412019
 H        -0.729464         0.429078         0.642422
 H        -0.308635         0.053465        -1.079271
 H         0.036187        -1.193113         0.276341
 H         4.167274         0.689692         0.224830
 H         2.408289        -1.382863        -0.905437
 H         3.439396         0.221134        -2.592412
 H         1.807888        -0.044524        -2.920398
 H         3.110623         2.608138        -2.392547
 H         1.321344         2.242578        -2.292495
 H         2.544601         2.695660         1.320230
