19
Iteration:  4745
 C        -0.135417         0.261148         0.170885
 C         1.445722         0.343004        -0.037295
 O         2.229424         0.169695         1.161965
 C         3.258134         0.496325         0.049487
 C         2.550790        -0.368016        -1.042034
 C         2.716234         0.424308        -2.348780
 C         2.345379         1.863763        -1.830399
 C         2.243596         1.671192        -0.372245
 O         1.845747         2.762869         0.444711
 H        -0.460407         1.145967         0.769516
 H        -0.611575         0.499585        -0.774618
 H        -0.477108        -0.626191         0.862731
 H         4.342661         0.672493         0.105181
 H         2.574955        -1.438186        -0.982896
 H         3.651039         0.080701        -2.876218
 H         1.845839         0.132019        -2.998651
 H         3.284509         2.527438        -1.966394
 H         1.458818         2.239873        -2.476656
 H         1.977220         2.683025         1.423483
