19
Iteration:   216
 C         0.020464        -0.078158        -0.049785
 C         1.437670         0.415328        -0.001918
 O         2.217839         0.177845         1.276112
 C         3.184554         0.422194         0.185137
 C         2.469187        -0.329549        -0.952784
 C         2.416876         0.399559        -2.303558
 C         2.366157         1.922475        -1.885950
 C         2.213600         1.790656        -0.381618
 O         2.118047         2.960666         0.384791
 H        -0.624120         0.638377         0.612151
 H        -0.161382         0.038050        -1.105970
 H        -0.004323        -1.200448         0.194479
 H         4.269035         0.367144         0.407524
 H         2.330951        -1.376292        -0.934819
 H         3.182178         0.091833        -3.130177
 H         1.481156         0.122479        -2.752987
 H         3.224109         2.572801        -2.318077
 H         1.527937         2.436247        -2.321040
 H         1.986614         2.735585         1.336447
