19
Iteration:  4866
 C        -0.089977         0.023105         0.003654
 C         1.347217         0.357192        -0.066507
 O         2.322506         0.152875         1.195888
 C         3.218751         0.559732         0.146992
 C         2.386515        -0.288470        -0.908235
 C         2.528213         0.428058        -2.239986
 C         2.383909         1.924846        -1.862010
 C         2.291959         1.720050        -0.429922
 O         2.053819         2.829280         0.392219
 H        -0.568279         0.455593         0.905542
 H        -0.782076         0.446045        -0.804388
 H        -0.280074        -1.117463         0.118483
 H         4.266273         0.526433         0.343914
 H         2.584259        -1.331588        -0.835433
 H         3.479744         0.209943        -2.723100
 H         1.863485         0.252727        -3.095717
 H         3.162458         2.647803        -2.142527
 H         1.370941         2.218562        -2.313262
 H         1.973091         2.430782         1.278849
