19
Iteration:  2048
 C        -0.028888         0.123354         0.038698
 C         1.410422         0.328550         0.089380
 O         2.274077         0.209615         1.210891
 C         3.239665         0.455770        -0.026766
 C         2.458641        -0.312830        -1.022134
 C         2.490812         0.420619        -2.354454
 C         2.449351         1.956022        -1.785989
 C         2.204205         1.683406        -0.382976
 O         1.955143         2.789602         0.431205
 H        -0.611699         0.769369         0.705212
 H        -0.414378         0.215140        -1.020469
 H        -0.263302        -0.871604         0.573497
 H         4.316414         0.564067         0.276861
 H         2.404568        -1.338857        -1.010613
 H         3.387745         0.038459        -2.962148
 H         1.627435         0.284964        -2.959106
 H         3.347091         2.512768        -1.816451
 H         1.638084         2.603668        -2.225180
 H         2.094678         2.519650         1.365109
