19
Iteration:  1260charge 0 multiplicity 1
 C        -0.038958        -0.017823         0.065385
 C         1.421308         0.308997        -0.034304
 O         2.214489         0.170721         1.196436
 C         3.239156         0.597595         0.137205
 C         2.460517        -0.360534        -0.892008
 C         2.472550         0.391603        -2.324301
 C         2.364175         1.976573        -1.827270
 C         2.172366         1.699509        -0.402223
 O         2.110895         2.885169         0.324948
 H        -0.392093         0.732982         0.815672
 H        -0.551394         0.170706        -0.893811
 H        -0.211192        -1.009314         0.447389
 H         4.261962         0.733506         0.299246
 H         2.448579        -1.495943        -0.911504
 H         3.486326         0.252954        -2.839196
 H         1.528294         0.044866        -2.856187
 H         3.293220         2.502393        -2.148634
 H         1.532007         2.564107        -2.331393
 H         2.190420         2.604469         1.274529
