19
Iteration:  3446charge 0 multiplicity 1
 C         0.025787        -0.029977        -0.031522
 C         1.410770         0.392440        -0.068503
 O         2.182030         0.240114         1.243852
 C         3.224653         0.512896         0.135141
 C         2.498888        -0.314898        -0.869099
 C         2.396496         0.393217        -2.338354
 C         2.451514         1.867272        -1.898543
 C         2.283845         1.715481        -0.381880
 O         2.018295         2.899938         0.413344
 H        -0.374047         0.519339         0.900353
 H        -0.705449         0.235919        -0.843151
 H        -0.067809        -1.015666         0.260789
 H         4.276251         0.566220         0.341775
 H         2.588415        -1.388093        -0.955354
 H         3.068001         0.058251        -3.108932
 H         1.442324         0.154350        -2.876227
 H         3.403069         2.534209        -2.100987
 H         1.531879         2.365283        -2.131304
 H         2.015399         2.443864         1.301600
