19
Iteration:   279
 C        -0.131429         0.211621         0.133034
 C         1.406011         0.339185        -0.007918
 O         2.303949         0.151836         1.190650
 C         3.311539         0.587567         0.086722
 C         2.455685        -0.338434        -0.960024
 C         2.594277         0.404839        -2.330065
 C         2.368756         1.884379        -1.878611
 C         2.252084         1.667179        -0.393287
 O         1.909290         2.760363         0.390373
 H        -0.604116         0.943954         0.749806
 H        -0.634272         0.415860        -0.824801
 H        -0.516191        -0.746576         0.454458
 H         4.373994         0.541068         0.424780
 H         2.499772        -1.414602        -0.894578
 H         3.671453         0.331094        -2.730758
 H         1.964881         0.017850        -3.115253
 H         3.162696         2.648650        -2.211944
 H         1.488563         2.390531        -2.374413
 H         1.983694         2.342231         1.297644
