19
Iteration:  4003charge 0 multiplicity 1
 C         0.038932         0.198610        -0.045920
 C         1.453303         0.364523        -0.066940
 O         2.319714         0.051006         1.176950
 C         3.229602         0.522979         0.201806
 C         2.433986        -0.260865        -1.023156
 C         2.473690         0.423533        -2.288688
 C         2.308515         1.916478        -1.859260
 C         2.199013         1.663793        -0.321758
 O         1.965045         2.809195         0.451272
 H        -0.515155         1.002846         0.475888
 H        -0.369815         0.103802        -1.037818
 H         0.001667        -0.897693         0.415716
 H         4.238954         0.682366         0.524659
 H         2.593712        -1.354280        -0.982688
 H         3.484004         0.181827        -2.714443
 H         1.670950         0.222948        -2.971557
 H         3.121248         2.571425        -2.121873
 H         1.345855         2.354728        -2.326317
 H         2.112313         2.561009         1.404871
