19
Iteration:  1871
 C        -0.046026         0.113145         0.123607
 C         1.390678         0.366012        -0.054068
 O         2.257554         0.038425         1.171208
 C         3.230441         0.585104         0.035128
 C         2.387511        -0.302637        -0.976033
 C         2.498125         0.416538        -2.291512
 C         2.450143         1.936144        -1.869575
 C         2.277931         1.702263        -0.357187
 O         1.977672         2.863191         0.417329
 H        -0.707155         0.762967         0.726084
 H        -0.661364        -0.066547        -0.885819
 H        -0.053439        -0.978813         0.413063
 H         4.365946         0.634683         0.202856
 H         2.576122        -1.396456        -0.810550
 H         3.595948         0.374525        -2.710080
 H         1.908933        -0.104972        -3.032051
 H         3.362670         2.541946        -1.988622
 H         1.585073         2.573079        -2.127017
 H         1.880447         2.579917         1.338365
