19
Iteration:  4004charge 0 multiplicity 1
 C         0.033367         0.210220        -0.046773
 C         1.450618         0.363819        -0.066395
 O         2.323940         0.052920         1.180835
 C         3.231781         0.515092         0.199989
 C         2.444094        -0.266800        -1.027489
 C         2.476387         0.426600        -2.282086
 C         2.293585         1.918854        -1.863089
 C         2.203340         1.658859        -0.323090
 O         1.965322         2.806203         0.450272
 H        -0.483161         0.995987         0.465125
 H        -0.371280         0.103619        -1.031538
 H         0.005435        -0.890486         0.391269
 H         4.230543         0.684442         0.551660
 H         2.593872        -1.336961        -0.968506
 H         3.472319         0.212011        -2.711440
 H         1.644071         0.229062        -2.964243
 H         3.149002         2.586120        -2.105558
 H         1.356319         2.323678        -2.357588
 H         2.061233         2.567287         1.411225
