19
Iteration:  1806charge 0 multiplicity 1
 C        -0.092285        -0.026577        -0.066718
 C         1.376873         0.441164        -0.044431
 O         2.296662         0.176717         1.222120
 C         3.169932         0.518814         0.082271
 C         2.448955        -0.332533        -0.923741
 C         2.508383         0.399761        -2.292993
 C         2.295576         1.939896        -1.856760
 C         2.286250         1.701388        -0.344237
 O         2.131271         2.925891         0.495773
 H        -0.818346         0.516762         0.516972
 H        -0.426534        -0.011703        -1.176663
 H         0.069706        -1.083894         0.156093
 H         4.346427         0.524993         0.154818
 H         2.353397        -1.436730        -1.049853
 H         3.443597         0.128528        -2.913694
 H         1.680420         0.022579        -2.830466
 H         3.060368         2.438184        -2.415370
 H         1.249958         2.201938        -2.067969
 H         2.160344         2.510451         1.377901
