19
Iteration:  3362charge 0 multiplicity 1
 C        -0.023142         0.236250         0.110242
 C         1.394882         0.456256        -0.129954
 O         2.212771         0.108237         1.179676
 C         3.247001         0.550493         0.113334
 C         2.474391        -0.315642        -0.958614
 C         2.716516         0.331156        -2.329596
 C         2.195155         1.840028        -1.919402
 C         2.259888         1.686356        -0.359473
 O         1.982526         2.804511         0.455846
 H        -0.419578         1.087143         0.732049
 H        -0.556059        -0.034514        -0.777305
 H        -0.053287        -0.694110         0.787274
 H         4.297081         0.797460         0.489895
 H         2.575918        -1.395294        -1.081381
 H         3.775584         0.290654        -2.617713
 H         1.980091        -0.132043        -2.968880
 H         2.886296         2.667759        -2.247169
 H         1.198181         2.000263        -2.320743
 H         1.898474         2.533704         1.383235
