19
Iteration:  3062charge 0 multiplicity 1
 C        -0.046175        -0.107758        -0.028788
 C         1.382761         0.396964         0.054089
 O         2.179723         0.155781         1.241871
 C         3.147922         0.627773         0.099495
 C         2.457847        -0.277932        -0.988734
 C         2.555588         0.381721        -2.298337
 C         2.234541         1.826602        -1.899037
 C         2.209463         1.753699        -0.306408
 O         2.281590         2.923575         0.376435
 H        -0.860766         0.278910         0.567761
 H        -0.434094         0.018434        -1.059532
 H         0.064073        -1.224610         0.190759
 H         4.161702         0.828503         0.426781
 H         2.613738        -1.394188        -0.868587
 H         3.574415         0.448187        -2.640104
 H         1.720761         0.133232        -3.063704
 H         2.866395         2.644192        -2.271020
 H         1.259081         1.922250        -2.232219
 H         2.240676         3.012002         1.342367
