19
Iteration:  2904charge 0 multiplicity 1
 C        -0.037852        -0.134125        -0.046644
 C         1.346349         0.328144         0.015748
 O         2.264269         0.219805         1.276928
 C         3.048358         0.520904         0.127898
 C         2.436460        -0.295042        -0.921519
 C         2.559586         0.455016        -2.314063
 C         2.245461         1.882329        -1.883564
 C         2.196311         1.683704        -0.314450
 O         2.262667         2.952510         0.319679
 H        -0.586089         0.520677         0.667756
 H        -0.339643         0.168182        -1.058519
 H        -0.152600        -1.154588        -0.038278
 H         4.149889         0.517584         0.374454
 H         2.726322        -1.350736        -0.797629
 H         3.620043         0.378263        -2.685060
 H         1.950887         0.225821        -3.155674
 H         2.970606         2.613234        -2.086350
 H         1.206455         2.266893        -2.155931
 H         2.373380         2.914213         1.301276
