19
Iteration:   383
 C        -0.040614        -0.063934        -0.040648
 C         1.386222         0.459137        -0.108152
 O         2.240516         0.232457         1.261293
 C         3.222644         0.551557         0.149294
 C         2.446279        -0.229999        -0.884559
 C         2.398368         0.428516        -2.337585
 C         2.385865         1.871529        -1.884301
 C         2.309747         1.719822        -0.404182
 O         2.120338         2.800434         0.452422
 H        -0.556517         0.547613         0.756477
 H        -0.674368        -0.113131        -0.973434
 H        -0.003872        -1.087223         0.333085
 H         4.300916         0.564472         0.293319
 H         2.542108        -1.407480        -0.835619
 H         3.201414         0.113832        -2.938490
 H         1.400235         0.134828        -2.832039
 H         3.183445         2.386826        -2.336213
 H         1.484584         2.241834        -2.223204
 H         1.937868         2.407563         1.331164
