19
Iteration:  4165
 C        -0.051462         0.093209        -0.007315
 C         1.421662         0.431747         0.077251
 O         2.294634         0.182705         1.205684
 C         3.199256         0.485438         0.040969
 C         2.515589        -0.353931        -0.975150
 C         2.500054         0.411644        -2.277042
 C         2.342844         1.970490        -1.863735
 C         2.173083         1.684490        -0.353114
 O         2.020276         2.765382         0.429740
 H        -0.876953         0.807715         0.192671
 H        -0.164115         0.125378        -1.064892
 H        -0.249928        -0.872658         0.280051
 H         4.266906         0.498088         0.254876
 H         2.767385        -1.451802        -1.109324
 H         3.370189         0.204056        -2.968839
 H         1.558192         0.281992        -2.780448
 H         3.181457         2.631522        -1.949349
 H         1.399490         2.492156        -2.190565
 H         2.381676         2.580155         1.342395
