19
Iteration:   874charge 0 multiplicity 1
 C        -0.029144         0.237853         0.012319
 C         1.431763         0.383973        -0.021146
 O         2.293326         0.104563         1.151303
 C         3.282898         0.539766         0.050640
 C         2.456723        -0.213026        -0.925275
 C         2.572362         0.355195        -2.310954
 C         2.321487         1.804767        -1.883456
 C         2.176600         1.706252        -0.354620
 O         1.955272         2.780568         0.493648
 H        -0.486776         1.018191         0.625827
 H        -0.412003         0.431807        -1.071654
 H        -0.313327        -0.774314         0.426956
 H         4.368865         0.525376         0.313384
 H         2.570175        -1.367634        -0.841927
 H         3.569737         0.244430        -2.753387
 H         1.759446         0.057954        -2.975880
 H         3.090843         2.642627        -2.023366
 H         1.271220         2.141309        -2.324748
 H         1.938118         2.283573         1.366181
