19
Iteration:  1676
 C        -0.020011        -0.039793         0.090160
 C         1.417796         0.381835        -0.067907
 O         2.118314         0.165526         1.201055
 C         3.144962         0.535761         0.108246
 C         2.481090        -0.234930        -0.953031
 C         2.529410         0.419889        -2.323903
 C         2.296810         1.932311        -1.848539
 C         2.258813         1.691743        -0.370914
 O         2.178321         2.838497         0.379393
 H        -0.536448         0.616666         0.710657
 H        -0.526206        -0.069592        -0.924476
 H        -0.141046        -0.986375         0.591442
 H         4.235847         0.616147         0.491914
 H         2.499171        -1.336850        -0.757809
 H         3.533755         0.376227        -2.865265
 H         1.738736         0.015729        -2.930752
 H         3.099868         2.660487        -2.179932
 H         1.399212         2.229972        -2.454405
 H         2.528018         2.718524         1.290236
