19
Iteration:  1319charge 0 multiplicity 1
 C        -0.003284         0.033494        -0.021085
 C         1.409546         0.380137        -0.004992
 O         2.229363         0.147754         1.175863
 C         3.185708         0.642669         0.134628
 C         2.497342        -0.261941        -0.913495
 C         2.372228         0.365596        -2.239696
 C         2.386503         1.873755        -1.897513
 C         2.210443         1.705999        -0.351305
 O         2.097971         2.849912         0.402315
 H        -0.570466         0.616607         0.626789
 H        -0.384114         0.109978        -1.026035
 H        -0.126266        -0.996408         0.287904
 H         4.332226         0.678996         0.286551
 H         2.797866        -1.296501        -0.909666
 H         3.084759         0.054558        -2.918973
 H         1.479911        -0.056587        -2.801630
 H         3.315246         2.385903        -2.360001
 H         1.443277         2.231515        -2.239030
 H         2.571547         2.583506         1.198664
