19
Iteration:  4834
 C         0.028161        -0.017629        -0.064554
 C         1.411320         0.377603         0.049179
 O         2.210266         0.180469         1.161302
 C         3.178895         0.603777         0.166741
 C         2.415501        -0.282101        -0.954544
 C         2.457798         0.393831        -2.336172
 C         2.299885         1.839843        -1.830048
 C         2.223885         1.713605        -0.325262
 O         2.193099         2.888427         0.404414
 H        -0.787216         0.479485         0.426122
 H        -0.279363         0.040248        -1.138994
 H        -0.152496        -1.083424         0.206797
 H         4.196075         0.555749         0.442026
 H         2.623065        -1.332140        -0.808573
 H         3.468310         0.222555        -2.745146
 H         1.638162         0.240630        -3.034830
 H         3.102223         2.538708        -2.026496
 H         1.303548         2.338795        -2.284174
 H         2.137677         2.500339         1.319961
