19
Iteration:   617charge 0 multiplicity 1
 C        -0.033402         0.037013         0.083625
 C         1.446143         0.309445        -0.027555
 O         2.227031         0.239941         1.217685
 C         3.213082         0.521094         0.094288
 C         2.390500        -0.318256        -0.955154
 C         2.571067         0.449364        -2.373852
 C         2.436072         1.967903        -1.861208
 C         2.164058         1.637222        -0.394912
 O         2.047213         2.817959         0.378954
 H        -0.308661         0.787215         0.901358
 H        -0.590553         0.249951        -0.777032
 H        -0.382744        -0.991388         0.502508
 H         4.258844         0.479807         0.396981
 H         2.381160        -1.436326        -0.920082
 H         3.519233         0.179932        -2.877361
 H         1.670699         0.263020        -2.884886
 H         3.262550         2.668964        -1.817840
 H         1.514839         2.402000        -2.239557
 H         1.923766         2.371942         1.251288
