19
Iteration:  1475charge 0 multiplicity 1
 C         0.008661        -0.060473        -0.097209
 C         1.376024         0.330794         0.013536
 O         2.250294         0.214517         1.275689
 C         3.181708         0.625551         0.118789
 C         2.531013        -0.245668        -0.870824
 C         2.351675         0.451696        -2.268963
 C         2.315051         1.841543        -1.882945
 C         2.170557         1.727471        -0.387197
 O         2.208767         2.824189         0.349666
 H        -0.685171         0.579858         0.492153
 H        -0.322522         0.061482        -1.049628
 H        -0.121296        -1.105460         0.192290
 H         4.312978         0.730986         0.560332
 H         2.399111        -1.370793        -0.866603
 H         3.114794         0.059688        -2.953808
 H         1.400176         0.151101        -2.762788
 H         3.262593         2.337248        -2.087227
 H         1.626714         2.540070        -2.410354
 H         2.340823         2.495677         1.250768
