19
Iteration:  3543charge 0 multiplicity 1
 C        -0.092715         0.255424        -0.036592
 C         1.464581         0.289860        -0.080339
 O         2.328628         0.132086         1.190020
 C         3.284985         0.563668         0.186967
 C         2.555030        -0.338053        -0.968914
 C         2.512477         0.406189        -2.326487
 C         2.231022         1.825669        -1.850444
 C         2.183732         1.643671        -0.365564
 O         2.013245         2.825510         0.444967
 H        -0.475992         1.133416         0.600311
 H        -0.663932         0.310812        -1.018952
 H        -0.428492        -0.578089         0.497828
 H         4.201142         0.855803         0.613203
 H         2.836123        -1.355121        -0.729603
 H         3.545315         0.420497        -2.813634
 H         1.808267         0.064477        -3.140832
 H         3.060096         2.497803        -2.066893
 H         1.262560         2.192195        -2.208644
 H         1.607365         2.517343         1.272568
