19
Iteration:  2828
 C        -0.074821         0.325490         0.105571
 C         1.454748         0.296685        -0.045805
 O         2.402928         0.138549         1.196467
 C         3.245372         0.548310         0.072516
 C         2.497919        -0.281043        -0.927128
 C         2.510023         0.371962        -2.281379
 C         2.454144         1.901063        -1.816444
 C         2.175923         1.646604        -0.406046
 O         1.782359         2.724408         0.352022
 H        -0.479303         1.204778         0.729467
 H        -0.391972         0.381694        -0.959349
 H        -0.374673        -0.653417         0.419146
 H         4.350258         0.293766         0.184078
 H         2.773241        -1.355032        -0.911877
 H         3.464486         0.290980        -2.906248
 H         1.683054         0.190546        -2.996379
 H         3.292663         2.471121        -1.974232
 H         1.541719         2.475859        -2.151262
 H         1.898619         2.323018         1.245115
