19
Iteration:  1429charge 0 multiplicity 1
 C        -0.064300         0.125755         0.062011
 C         1.406067         0.380065         0.002860
 O         2.315496         0.161450         1.202649
 C         3.226447         0.560242         0.175580
 C         2.488496        -0.308551        -0.971672
 C         2.480323         0.393918        -2.283689
 C         2.308371         1.880120        -1.912665
 C         2.237427         1.684115        -0.400118
 O         2.030803         2.814061         0.372847
 H        -0.561224         0.815479         0.723054
 H        -0.484669         0.326115        -0.875804
 H        -0.274781        -0.916892         0.401686
 H         4.353933         0.624443         0.332046
 H         2.700652        -1.369560        -0.881983
 H         3.395991         0.218948        -2.865652
 H         1.717916        -0.140774        -2.913429
 H         3.252312         2.425633        -2.196250
 H         1.513969         2.450550        -2.365273
 H         1.738755         2.515795         1.236683
