19
Iteration:  4974
 C        -0.127053         0.094789        -0.049390
 C         1.425529         0.316703        -0.035272
 O         2.190545         0.107589         1.177443
 C         3.202265         0.678603         0.123785
 C         2.535993        -0.256736        -0.918319
 C         2.521466         0.396417        -2.300424
 C         2.239701         1.889153        -1.898429
 C         2.291043         1.666415        -0.323240
 O         2.147870         2.802542         0.469018
 H        -0.711602         0.818755         0.546299
 H        -0.380640        -0.010531        -1.167463
 H        -0.160493        -0.905404         0.537857
 H         4.284016         0.642770         0.301079
 H         2.654816        -1.288090        -0.803438
 H         3.442173         0.384949        -2.889227
 H         1.631811         0.181500        -2.967297
 H         3.099057         2.541382        -2.325663
 H         1.356448         2.285529        -2.287027
 H         2.189580         2.506383         1.400468
