19
Iteration:  2338charge 0 multiplicity 1
 C        -0.091701         0.067373         0.074293
 C         1.444212         0.307466        -0.008892
 O         2.234898         0.122201         1.174028
 C         3.264690         0.535592         0.149432
 C         2.487051        -0.290082        -0.976416
 C         2.464075         0.462764        -2.349895
 C         2.479523         1.933315        -1.801373
 C         2.182192         1.679150        -0.377313
 O         2.013060         2.849216         0.334122
 H        -0.395493         0.743763         0.944409
 H        -0.478369         0.152412        -0.975723
 H        -0.307349        -0.955998         0.430086
 H         4.297606         0.577979         0.529221
 H         2.519436        -1.453918        -0.879638
 H         3.198801         0.114133        -3.016922
 H         1.382351         0.338668        -2.834578
 H         3.439162         2.510853        -1.997716
 H         1.708283         2.471743        -2.254528
 H         1.795263         2.754437         1.272284
