19
Iteration:   816
 C        -0.024565         0.245826         0.044133
 C         1.461788         0.357689        -0.040544
 O         2.215308         0.057981         1.144674
 C         3.241146         0.546313         0.116854
 C         2.499176        -0.372297        -0.980807
 C         2.594151         0.327305        -2.341731
 C         2.225481         1.892787        -1.842089
 C         2.334656         1.658081        -0.398524
 O         1.904231         2.902939         0.517646
 H        -0.535593         0.914373         0.732426
 H        -0.520491         0.406258        -0.967705
 H        -0.309572        -0.752497         0.261953
 H         4.302332         0.670238         0.519634
 H         2.701562        -1.410227        -0.818279
 H         3.636724         0.428175        -2.844627
 H         1.961809        -0.047396        -3.086724
 H         2.918927         2.640691        -2.232856
 H         1.172885         2.140160        -2.114543
 H         2.656571         2.906086         1.138140
