19
Iteration:  2094
 C        -0.021908         0.335350         0.059817
 C         1.459959         0.338145        -0.056650
 O         2.216996         0.035313         1.117336
 C         3.290801         0.578381         0.149027
 C         2.608342        -0.369711        -0.967682
 C         2.585875         0.407503        -2.395471
 C         2.151742         1.854368        -1.857859
 C         2.211592         1.681828        -0.337744
 O         1.983516         2.784461         0.496283
 H        -0.418324         1.163752         0.739427
 H        -0.238255         0.584641        -0.944675
 H        -0.536093        -0.576139         0.446613
 H         4.355649         0.687680         0.496608
 H         2.724289        -1.424598        -0.885958
 H         3.472729         0.417060        -2.973561
 H         1.830927        -0.113209        -3.010267
 H         2.778134         2.654060        -2.196377
 H         1.148344         2.089314        -2.181331
 H         2.123812         2.626116         1.439283
