19
Iteration:   606charge 0 multiplicity 1
 C        -0.064699        -0.018187         0.086915
 C         1.375183         0.364522        -0.055061
 O         2.240556         0.265668         1.168079
 C         3.198168         0.458214         0.101523
 C         2.463703        -0.319721        -1.000210
 C         2.488818         0.424072        -2.303550
 C         2.455506         1.899725        -1.806405
 C         2.222420         1.749392        -0.372828
 O         2.022344         2.859629         0.408008
 H        -0.547610         0.592784         0.913808
 H        -0.644860         0.152222        -0.783970
 H        -0.083371        -1.134939         0.377459
 H         4.253322         0.473278         0.385934
 H         2.539545        -1.409941        -1.136673
 H         3.382783         0.160314        -2.891907
 H         1.723034         0.102569        -2.984834
 H         3.406009         2.354302        -2.051938
 H         1.737562         2.547647        -2.319243
 H         2.239777         2.612431         1.338284
