19
Iteration:   608
 C        -0.061128        -0.016333         0.079958
 C         1.401413         0.348321        -0.041653
 O         2.239213         0.270368         1.174437
 C         3.198256         0.457424         0.100831
 C         2.443449        -0.322883        -0.993674
 C         2.502706         0.424896        -2.325079
 C         2.453460         1.907989        -1.791603
 C         2.206180         1.741011        -0.394961
 O         2.025480         2.856111         0.405160
 H        -0.490712         0.636487         0.919472
 H        -0.684546         0.172040        -0.777143
 H        -0.131905        -1.100507         0.403695
 H         4.258287         0.468299         0.414939
 H         2.502347        -1.302956        -1.141106
 H         3.451061         0.132971        -2.916040
 H         1.714324         0.113444        -2.919771
 H         3.418932         2.410152        -2.025060
 H         1.673596         2.534487        -2.293294
 H         2.203947         2.577118         1.322899
