19
Iteration:  3534
 C        -0.056074         0.319249         0.062441
 C         1.418657         0.274896        -0.078656
 O         2.290449         0.125590         1.172548
 C         3.228397         0.552621         0.188052
 C         2.578821        -0.377311        -0.951591
 C         2.613156         0.482356        -2.280251
 C         2.189810         1.847085        -1.852810
 C         2.242815         1.602172        -0.386996
 O         1.963087         2.823027         0.381177
 H        -0.426624         1.215181         0.716062
 H        -0.543856         0.308125        -0.939213
 H        -0.285351        -0.680870         0.390404
 H         4.284840         0.410951         0.401240
 H         2.862487        -1.447166        -1.094620
 H         3.579378         0.469162        -2.819954
 H         1.969074        -0.131462        -2.984568
 H         2.890534         2.710633        -2.261329
 H         1.227961         2.234328        -2.043202
 H         1.685004         2.461701         1.243592
