19
Iteration:  3308
 C        -0.015647         0.242708         0.170856
 C         1.422465         0.368910        -0.064051
 O         2.298031         0.164971         1.194581
 C         3.205254         0.523027         0.128459
 C         2.513434        -0.391471        -0.974314
 C         2.566390         0.404272        -2.358393
 C         2.402119         1.854594        -1.856212
 C         2.189535         1.686072        -0.360082
 O         1.857919         2.798367         0.336356
 H        -0.318471         0.823877         1.060445
 H        -0.436377         0.592116        -0.751362
 H        -0.254227        -0.831019         0.431974
 H         4.270457         0.570688         0.496122
 H         2.595657        -1.474715        -0.927585
 H         3.576112         0.329533        -2.919148
 H         1.847037         0.141904        -3.137822
 H         3.282912         2.437344        -2.057975
 H         1.530786         2.294333        -2.347038
 H         1.888656         2.587208         1.288489
