19
Iteration:  1170
 C        -0.043828         0.282739         0.033452
 C         1.485475         0.382285        -0.060956
 O         2.301970         0.053046         1.178923
 C         3.210629         0.587748         0.105696
 C         2.536429        -0.277719        -0.915537
 C         2.550355         0.350780        -2.277256
 C         2.234825         1.802042        -1.938588
 C         2.233536         1.706837        -0.337463
 O         1.940649         2.801791         0.428413
 H        -0.445532         1.081459         0.737916
 H        -0.585960         0.297833        -0.869239
 H        -0.384501        -0.773479         0.382787
 H         4.283250         0.525068         0.257784
 H         2.653454        -1.326243        -0.864657
 H         3.652005         0.386237        -2.726460
 H         1.818905        -0.031946        -2.973097
 H         3.008915         2.425232        -2.290619
 H         1.248784         2.334450        -2.129678
 H         2.264650         2.528044         1.315152
