19
Iteration:   284
 C        -0.103868         0.230359         0.143456
 C         1.430959         0.375527        -0.039222
 O         2.317054         0.135366         1.151867
 C         3.273477         0.564829         0.094960
 C         2.463286        -0.330077        -0.943319
 C         2.608889         0.382842        -2.317860
 C         2.380601         1.892969        -1.873398
 C         2.270710         1.646105        -0.411999
 O         1.888297         2.758615         0.402062
 H        -0.557900         1.059410         0.822250
 H        -0.596799         0.417010        -0.826694
 H        -0.498000        -0.783964         0.458868
 H         4.288341         0.671382         0.476688
 H         2.325281        -1.450218        -0.897242
 H         3.623792         0.277299        -2.667141
 H         1.916780         0.035646        -3.135657
 H         2.984327         2.729460        -2.166610
 H         1.414007         2.221143        -2.226915
 H         1.815914         2.508006         1.334486
