19
Iteration:  4328
 C        -0.093711         0.007865        -0.137780
 C         1.392742         0.332849        -0.043525
 O         2.355311         0.158802         1.256231
 C         3.227230         0.589498         0.118609
 C         2.456137        -0.272195        -0.916864
 C         2.427638         0.333967        -2.342833
 C         2.332053         1.900769        -1.880497
 C         2.233973         1.722996        -0.297233
 O         2.079608         2.890405         0.452264
 H        -0.653993         0.722181         0.598368
 H        -0.360681         0.070819        -1.184235
 H        -0.099574        -1.013374         0.208052
 H         4.292184         0.650309         0.360002
 H         2.476969        -1.374796        -0.716558
 H         3.344344         0.104736        -2.923632
 H         1.502628         0.209067        -2.902092
 H         3.275779         2.493030        -1.984794
 H         1.464935         2.366068        -2.347155
 H         1.975844         2.742492         1.430672
