19
Iteration:  3666charge 0 multiplicity 1
 C        -0.036804         0.230930         0.158263
 C         1.397484         0.320727        -0.028085
 O         2.273124         0.096008         1.166146
 C         3.246459         0.413811         0.097414
 C         2.501198        -0.288520        -0.972310
 C         2.713422         0.475068        -2.284861
 C         2.220701         1.942298        -1.864651
 C         2.187917         1.693358        -0.447050
 O         1.918576         2.793223         0.364403
 H        -0.457095         0.710167         1.074122
 H        -0.523190         0.709354        -0.661096
 H        -0.459550        -0.821935         0.271192
 H         4.324179         0.276448         0.384994
 H         2.705287        -1.382958        -1.069036
 H         3.794864         0.326388        -2.348519
 H         2.100704         0.054429        -3.145736
 H         3.029188         2.812769        -1.939317
 H         1.359085         2.221868        -2.371749
 H         2.175220         2.554716         1.275590
