19
Iteration:   457charge 0 multiplicity 1
 C         0.023324         0.198117         0.090724
 C         1.451089         0.378747        -0.008295
 O         2.218900         0.123510         1.173969
 C         3.238115         0.478354         0.006710
 C         2.479341        -0.319578        -0.963189
 C         2.587667         0.424207        -2.286881
 C         2.330273         1.857790        -1.828516
 C         2.256482         1.654445        -0.310584
 O         1.920121         2.866893         0.357958
 H        -0.349580         0.939207         0.843874
 H        -0.498027         0.305550        -0.814760
 H        -0.227730        -0.780091         0.460054
 H         4.307683         0.364403         0.207222
 H         2.440096        -1.426057        -0.961625
 H         3.561202         0.141401        -2.791501
 H         1.792799         0.111976        -2.931674
 H         3.160660         2.591561        -2.109031
 H         1.360989         2.138463        -2.255156
 H         1.717244         2.846273         1.309628
