19
Iteration:  1070charge 0 multiplicity 1
 C        -0.092084         0.081134         0.118203
 C         1.403986         0.293664        -0.074376
 O         2.251485         0.093752         1.184388
 C         3.210177         0.616700         0.100837
 C         2.514533        -0.305042        -0.922918
 C         2.514451         0.406947        -2.339500
 C         2.403006         1.946107        -1.865653
 C         2.159887         1.728434        -0.352219
 O         2.079150         2.821155         0.369982
 H        -0.440445         0.889957         0.746841
 H        -0.661202         0.213996        -0.832213
 H        -0.391126        -0.921605         0.567484
 H         4.258129         0.758375         0.527376
 H         2.645697        -1.376222        -0.798960
 H         3.530765         0.239660        -2.969274
 H         1.662301         0.040934        -2.914557
 H         3.161334         2.669743        -2.067363
 H         1.561561         2.225249        -2.524280
 H         1.903595         2.548683         1.289873
