19
Iteration:  3960charge 0 multiplicity 1
 C        -0.081181        -0.133009         0.111069
 C         1.323731         0.329455        -0.116677
 O         2.224383         0.121171         1.183526
 C         3.121680         0.585802         0.188405
 C         2.490451        -0.281540        -0.988209
 C         2.495763         0.545674        -2.337393
 C         2.494960         1.997127        -1.821941
 C         2.143161         1.701484        -0.423941
 O         2.159203         2.861624         0.398183
 H        -0.501071         0.724537         0.561537
 H        -0.588334        -0.360362        -0.789152
 H        -0.112381        -1.188785         0.603676
 H         4.153458         0.529515         0.441167
 H         2.415126        -1.380852        -1.085541
 H         3.450574         0.389598        -2.881505
 H         1.584957         0.213565        -2.855880
 H         3.453248         2.557436        -1.756132
 H         1.640921         2.577382        -2.279453
 H         2.387742         2.422573         1.264538
