19
Iteration:  4582
 C        -0.105391         0.287022         0.170996
 C         1.362486         0.261701        -0.115975
 O         2.403218         0.072895         1.235251
 C         3.097989         0.543808         0.121510
 C         2.455223        -0.339151        -0.991509
 C         2.724835         0.429196        -2.396972
 C         2.343740         1.913436        -1.835776
 C         2.225695         1.624575        -0.317409
 O         1.902401         2.831846         0.334902
 H        -0.391731         1.254229         0.634821
 H        -0.655239         0.108122        -0.804065
 H        -0.245150        -0.596040         0.961626
 H         4.176098         0.766022         0.109112
 H         2.488410        -1.395273        -0.893198
 H         3.867933         0.361006        -2.668706
 H         1.987099         0.129736        -3.183584
 H         3.238586         2.517095        -1.975808
 H         1.411470         2.463964        -2.306295
 H         1.861964         2.405570         1.252163
