19
Iteration:  2335
 C        -0.094712         0.069740         0.073447
 C         1.440792         0.337147        -0.022188
 O         2.251239         0.107346         1.190132
 C         3.228471         0.549928         0.118682
 C         2.490865        -0.309508        -1.001916
 C         2.475793         0.455082        -2.300296
 C         2.477020         1.934834        -1.797350
 C         2.193784         1.671144        -0.352080
 O         2.003641         2.836948         0.314289
 H        -0.447089         0.739222         0.921528
 H        -0.462697         0.176071        -0.922789
 H        -0.386471        -0.895020         0.423646
 H         4.301425         0.651690         0.409572
 H         2.505963        -1.363546        -0.939358
 H         3.300755         0.111150        -2.961969
 H         1.480424         0.264719        -2.834704
 H         3.398652         2.523513        -2.027325
 H         1.645357         2.581095        -2.190318
 H         1.928315         2.743327         1.296949
