19
Iteration:  1853
 C        -0.138950        -0.062008         0.117657
 C         1.336943         0.344228        -0.050440
 O         2.252465         0.110982         1.101747
 C         3.161673         0.542457         0.132540
 C         2.542407        -0.264231        -0.979185
 C         2.545365         0.440502        -2.330619
 C         2.379078         1.911601        -1.836425
 C         2.207794         1.771537        -0.336852
 O         2.162534         2.895190         0.421349
 H        -0.604616         0.744780         0.626691
 H        -0.730015        -0.063178        -0.771007
 H        -0.453175        -1.049257         0.543091
 H         4.277221         0.683533         0.447704
 H         2.633400        -1.350443        -0.931176
 H         3.353409         0.055095        -2.912646
 H         1.642871         0.354218        -2.931602
 H         3.304649         2.429245        -2.019455
 H         1.566918         2.326272        -2.469175
 H         1.849879         2.709078         1.315721
