19
Iteration:  1295charge 0 multiplicity 1
 C        -0.054193        -0.135605        -0.078550
 C         1.401412         0.420887        -0.031923
 O         2.249789         0.211680         1.243608
 C         3.294900         0.584125         0.091086
 C         2.464826        -0.311971        -0.928471
 C         2.310424         0.329351        -2.328002
 C         2.374631         1.880719        -1.850604
 C         2.258175         1.728813        -0.304707
 O         2.159599         3.011040         0.424414
 H        -0.700576         0.363269         0.559656
 H        -0.511330        -0.097255        -1.132240
 H        -0.085446        -1.126440         0.189967
 H         4.315560         0.583653         0.430692
 H         2.324506        -1.412101        -0.633536
 H         2.968524         0.120487        -3.183363
 H         1.381254        -0.158562        -2.865767
 H         3.495854         2.224863        -2.027511
 H         1.612329         2.542235        -2.270725
 H         1.939874         2.599293         1.292266
