19
Iteration:  3448charge 0 multiplicity 1
 C         0.034481        -0.021446        -0.011553
 C         1.397173         0.402763        -0.071177
 O         2.187472         0.247820         1.247273
 C         3.201149         0.494668         0.132439
 C         2.499699        -0.310428        -0.896167
 C         2.410744         0.396083        -2.346627
 C         2.444411         1.874266        -1.881527
 C         2.271468         1.703812        -0.381111
 O         2.020586         2.890787         0.400689
 H        -0.340200         0.516707         0.909247
 H        -0.627728         0.299351        -0.806542
 H        -0.111221        -1.052517         0.306175
 H         4.274472         0.646080         0.414598
 H         2.672587        -1.397888        -0.962973
 H         3.111333         0.084592        -3.085583
 H         1.483319         0.089832        -2.872244
 H         3.445307         2.506093        -2.089949
 H         1.543371         2.373712        -2.109035
 H         1.995216         2.391504         1.266721
