19
Iteration:  4031
 C        -0.103465         0.333992        -0.012566
 C         1.442578         0.223630        -0.021012
 O         2.254814         0.139252         1.142274
 C         3.330235         0.577937         0.084406
 C         2.599100        -0.272784        -1.012757
 C         2.533066         0.364761        -2.335652
 C         2.246431         1.890707        -1.763380
 C         2.258266         1.617371        -0.326515
 O         1.956918         2.742242         0.477662
 H        -0.357496         1.172665         0.684494
 H        -0.403504         0.624012        -1.059654
 H        -0.537475        -0.539237         0.119285
 H         4.465236         0.596035         0.244671
 H         3.012907        -1.305503        -0.899105
 H         3.530808         0.267531        -2.753618
 H         1.680304         0.107672        -3.005222
 H         2.806544         2.718979        -2.262783
 H         1.207760         2.117895        -1.727515
 H         1.421971         2.444337         1.261495
