19
Iteration:   753charge 0 multiplicity 1
 C        -0.051922        -0.114453         0.084091
 C         1.371367         0.297391        -0.118535
 O         2.191712         0.257120         1.221804
 C         3.147600         0.510492         0.154114
 C         2.456625        -0.273015        -1.050910
 C         2.440834         0.463957        -2.287554
 C         2.507028         1.883362        -1.815958
 C         2.261600         1.771772        -0.366353
 O         2.104748         2.893383         0.391744
 H        -0.414721         0.497940         0.910541
 H        -0.707320         0.062814        -0.922018
 H         0.017770        -1.148811         0.386532
 H         4.269731         0.587063         0.280468
 H         2.659382        -1.394146        -1.023924
 H         3.203784         0.168299        -3.004244
 H         1.427041         0.289767        -2.673001
 H         3.570919         2.189404        -2.061870
 H         1.656300         2.469591        -2.318404
 H         1.861680         2.549227         1.291781
