19
Iteration:  2170charge 0 multiplicity 1
 C        -0.037453        -0.032583         0.062578
 C         1.422565         0.363318        -0.099507
 O         2.195930         0.153731         1.167691
 C         3.170220         0.577425         0.156982
 C         2.468917        -0.334718        -0.994008
 C         2.438151         0.451317        -2.344849
 C         2.475457         1.928814        -1.827591
 C         2.239244         1.717741        -0.429291
 O         2.072858         2.854882         0.443886
 H        -0.334619         0.631296         0.977799
 H        -0.786381         0.004773        -0.707567
 H        -0.105172        -1.070437         0.532721
 H         4.242282         0.668775         0.495559
 H         2.531899        -1.310767        -0.721762
 H         3.287544         0.196604        -3.036026
 H         1.478342         0.241727        -2.864503
 H         3.348164         2.520764        -2.005357
 H         1.622919         2.508505        -2.259606
 H         2.174929         2.561537         1.374579
