19
Iteration:  3922
 C        -0.085758        -0.047117         0.030195
 C         1.405784         0.418602        -0.116859
 O         2.306906         0.105250         1.126292
 C         3.188084         0.447046         0.110032
 C         2.488012        -0.288978        -0.956326
 C         2.547544         0.418646        -2.319652
 C         2.365349         1.942414        -1.848603
 C         2.230223         1.795158        -0.332493
 O         2.061538         2.902515         0.517821
 H        -0.622403         0.594405         0.840279
 H        -0.636168         0.213345        -0.959457
 H        -0.258016        -1.028563         0.354616
 H         4.282701         0.381608         0.429657
 H         2.255926        -1.362595        -0.764452
 H         3.405681         0.330215        -2.993942
 H         1.646112         0.223289        -2.931148
 H         3.255250         2.541740        -2.093784
 H         1.505784         2.364146        -2.347499
 H         1.494329         2.536395         1.234902
