19
Iteration:   684
 C        -0.075708         0.311264        -0.022124
 C         1.483294         0.322564        -0.019350
 O         2.296259         0.107603         1.167120
 C         3.314069         0.526633         0.165154
 C         2.552241        -0.295985        -0.936388
 C         2.535118         0.457964        -2.294239
 C         2.138134         1.861176        -1.822517
 C         2.235787         1.617422        -0.372898
 O         1.939256         2.706049         0.380119
 H        -0.348974         1.261508         0.549773
 H        -0.351846         0.497515        -1.045450
 H        -0.618266        -0.578538         0.394982
 H         4.328795         0.351486         0.552182
 H         2.543451        -1.290153        -1.076704
 H         3.635153         0.534738        -2.507623
 H         2.040823        -0.015454        -3.017230
 H         2.977625         2.530821        -1.987373
 H         1.199178         2.212977        -2.221604
 H         2.512575         2.996754         1.100811
