19
Iteration:  1056
 C        -0.066444         0.210828         0.113071
 C         1.425691         0.285851        -0.007577
 O         2.242115         0.144803         1.201447
 C         3.207608         0.521454         0.057789
 C         2.543940        -0.330518        -0.988461
 C         2.602574         0.471307        -2.265282
 C         2.289394         1.900079        -1.847210
 C         2.243753         1.598337        -0.384614
 O         1.951873         2.824915         0.356253
 H        -0.297729         1.064495         0.751999
 H        -0.538024         0.350205        -0.990189
 H        -0.377006        -0.712206         0.578383
 H         4.387430         0.552900         0.052686
 H         2.821485        -1.437339        -1.046068
 H         3.534626         0.277036        -2.776468
 H         1.838903         0.142113        -2.954173
 H         3.141029         2.536438        -2.080617
 H         1.421488         2.423854        -2.025375
 H         1.887833         2.539231         1.302919
