19
Iteration:  1400
 C        -0.051324         0.300754         0.203510
 C         1.376026         0.268370        -0.066690
 O         2.261678         0.133125         1.169994
 C         3.202982         0.561331         0.092320
 C         2.564605        -0.356788        -1.043368
 C         2.712637         0.408948        -2.321754
 C         2.255575         1.811813        -1.861591
 C         2.187945         1.662400        -0.317907
 O         1.915113         2.813034         0.353594
 H        -0.100781         1.188808         0.947628
 H        -0.760638         0.652357        -0.580061
 H        -0.508058        -0.528929         0.765887
 H         4.378116         0.667991         0.147733
 H         2.842534        -1.459908        -0.977367
 H         3.735403         0.324249        -2.791147
 H         1.955186        -0.028842        -2.908713
 H         2.920818         2.589930        -2.149123
 H         1.307256         2.133062        -2.401543
 H         2.300193         2.578033         1.220216
