19
Iteration:  3363charge 0 multiplicity 1
 C        -0.022048         0.233034         0.104794
 C         1.392521         0.460012        -0.135145
 O         2.213296         0.106384         1.181365
 C         3.253091         0.553529         0.113251
 C         2.469497        -0.306303        -0.946815
 C         2.707344         0.335407        -2.327158
 C         2.198676         1.841335        -1.912017
 C         2.263858         1.690203        -0.354726
 O         1.986992         2.796148         0.445595
 H        -0.431806         1.073579         0.690843
 H        -0.577738        -0.049154        -0.771605
 H        -0.055319        -0.733229         0.776140
 H         4.315229         0.751616         0.515255
 H         2.588491        -1.408012        -1.040092
 H         3.783172         0.319009        -2.640446
 H         1.958342        -0.118164        -2.966960
 H         2.838662         2.641587        -2.263360
 H         1.191853         2.002574        -2.353627
 H         1.913463         2.537394         1.382582
