19
Iteration:  3375charge 0 multiplicity 1
 C        -0.070401         0.152358         0.029519
 C         1.442797         0.403445        -0.079107
 O         2.234135         0.139442         1.153498
 C         3.224086         0.558413         0.155510
 C         2.529473        -0.271122        -0.895143
 C         2.561224         0.437471        -2.260953
 C         2.254135         1.833508        -1.880566
 C         2.264949         1.693772        -0.375490
 O         2.034079         2.793740         0.366606
 H        -0.610749         0.960048         0.499011
 H        -0.575781         0.008468        -0.933393
 H        -0.173863        -0.784669         0.750397
 H         4.305339         0.260343         0.376072
 H         2.538654        -1.326082        -0.495631
 H         3.582898         0.359864        -2.762219
 H         1.984881         0.052696        -3.110654
 H         2.843601         2.559512        -2.334141
 H         1.137507         2.033865        -2.049268
 H         2.089000         2.399153         1.278400
