19
Iteration:  4327charge 0 multiplicity 1
 C        -0.088242         0.001754        -0.126154
 C         1.392643         0.338021        -0.035837
 O         2.349418         0.163520         1.247406
 C         3.223524         0.586526         0.122786
 C         2.458356        -0.281300        -0.918719
 C         2.426635         0.340903        -2.340736
 C         2.333748         1.905424        -1.880712
 C         2.234958         1.733040        -0.298310
 O         2.082433         2.882273         0.446125
 H        -0.690924         0.703179         0.592239
 H        -0.332415         0.084021        -1.210716
 H        -0.154728        -1.027420         0.186513
 H         4.302230         0.657925         0.353403
 H         2.502269        -1.398774        -0.713625
 H         3.318104         0.140288        -2.915347
 H         1.484498         0.194492        -2.885120
 H         3.302697         2.506185        -1.992602
 H         1.501248         2.334778        -2.329997
 H         1.967876         2.727340         1.423991
