19
Iteration:   294charge 0 multiplicity 1
 C         0.007955         0.305249         0.128851
 C         1.442072         0.433437        -0.114659
 O         2.312027         0.097997         1.099071
 C         3.171831         0.491454         0.118674
 C         2.476810        -0.330663        -0.964430
 C         2.651974         0.363183        -2.276685
 C         2.311466         1.863247        -1.861077
 C         2.251327         1.669066        -0.330545
 O         1.869388         2.786040         0.397871
 H        -0.218977         1.088540         0.954500
 H        -0.496149         0.451311        -0.801615
 H        -0.136477        -0.732322         0.566267
 H         4.217310         0.733747         0.287463
 H         2.507569        -1.419673        -0.869018
 H         3.655506         0.067285        -2.690721
 H         1.884528         0.085188        -3.006861
 H         2.966119         2.685833        -2.156433
 H         1.306746         1.965828        -2.055340
 H         1.536025         2.530953         1.282234
