19
Iteration:   683charge 0 multiplicity 1
 C        -0.065519         0.318162        -0.024368
 C         1.482402         0.327055        -0.012305
 O         2.292600         0.099190         1.173056
 C         3.305933         0.533278         0.164201
 C         2.553349        -0.292292        -0.952243
 C         2.535924         0.456769        -2.287782
 C         2.139540         1.853987        -1.829819
 C         2.240876         1.619847        -0.379843
 O         1.934979         2.708303         0.385886
 H        -0.330274         1.264543         0.537423
 H        -0.341893         0.505127        -1.004701
 H        -0.588526        -0.594804         0.408714
 H         4.298072         0.352692         0.560535
 H         2.549098        -1.327368        -1.079416
 H         3.619289         0.531052        -2.494498
 H         2.050157        -0.039378        -3.048374
 H         2.950241         2.531476        -1.983348
 H         1.205999         2.203707        -2.201456
 H         2.518284         2.984512         1.097011
