19
Iteration:  1687
 C        -0.091930         0.056485         0.132691
 C         1.340130         0.387838         0.021725
 O         2.201566         0.161710         1.205831
 C         3.164905         0.555233         0.125836
 C         2.514822        -0.364606        -0.983976
 C         2.595975         0.465976        -2.387197
 C         2.342254         1.870043        -1.899425
 C         2.157689         1.675552        -0.355346
 O         2.141912         2.864988         0.379725
 H        -0.676597         0.683102         0.701498
 H        -0.533406        -0.059522        -0.905606
 H         0.033207        -0.961671         0.469678
 H         4.324805         0.653548         0.290064
 H         2.694015        -1.490146        -0.997706
 H         3.589702         0.338904        -2.956833
 H         1.856399         0.226925        -3.136211
 H         3.193959         2.615428        -1.994316
 H         1.354233         2.400701        -2.136118
 H         2.264188         2.553878         1.315408
