19
Iteration:  3608
 C        -0.047875        -0.098055         0.023096
 C         1.378223         0.354252         0.016438
 O         2.165522         0.207481         1.217209
 C         3.179565         0.583839         0.098671
 C         2.513918        -0.328789        -0.941490
 C         2.375919         0.520900        -2.333946
 C         2.453865         1.912064        -1.812772
 C         2.270122         1.715629        -0.357657
 O         2.149918         2.829695         0.356896
 H        -0.719514         0.538380         0.688114
 H        -0.470821        -0.165068        -1.025003
 H        -0.006935        -1.074456         0.349883
 H         4.171275         0.622406         0.459699
 H         2.891950        -1.358302        -0.977192
 H         3.220310         0.145404        -3.002175
 H         1.549925         0.480766        -3.038864
 H         3.344137         2.465191        -2.012170
 H         1.579824         2.395853        -2.312110
 H         1.795086         2.585952         1.248272
