19
Iteration:  4651
 C        -0.088840        -0.007199        -0.093336
 C         1.386160         0.345166        -0.013424
 O         2.204233         0.215440         1.184086
 C         3.209711         0.625221         0.103168
 C         2.560996        -0.321614        -0.925200
 C         2.416071         0.361006        -2.277067
 C         2.313378         1.865863        -1.861763
 C         2.245326         1.711700        -0.350338
 O         2.153419         2.858266         0.461081
 H        -0.586255         0.625892         0.614447
 H        -0.195646         0.467012        -1.123143
 H        -0.257127        -1.066252        -0.001965
 H         4.241917         0.709036         0.495619
 H         2.865135        -1.406503        -0.866508
 H         3.220087         0.282410        -3.023912
 H         1.469221        -0.078321        -2.618570
 H         3.216927         2.368655        -2.086448
 H         1.514020         2.572743        -2.199627
 H         2.161350         2.531278         1.374923
