19
Iteration:  3142charge 0 multiplicity 1
 C        -0.013671         0.261313         0.145607
 C         1.466061         0.271449        -0.098480
 O         2.324281         0.087304         1.120168
 C         3.279591         0.569773         0.106209
 C         2.511345        -0.351289        -0.913587
 C         2.556180         0.368669        -2.292421
 C         2.438338         1.829091        -1.925284
 C         2.216834         1.734245        -0.398720
 O         1.734716         2.867121         0.454779
 H        -0.241490         1.079957         0.917115
 H        -0.681671         0.457382        -0.706968
 H        -0.457925        -0.579854         0.559347
 H         4.352239         0.659832         0.361394
 H         2.699006        -1.421820        -0.852202
 H         3.387955         0.233293        -2.997774
 H         1.727914         0.082535        -2.933532
 H         3.278896         2.521566        -2.115315
 H         1.589063         2.259686        -2.354866
 H         1.828366         2.378108         1.310292
