19
Iteration:  4076charge 0 multiplicity 1
 C        -0.105686         0.099540         0.087150
 C         1.429547         0.393122        -0.012735
 O         2.283822         0.139362         1.122619
 C         3.257135         0.480884         0.086264
 C         2.411281        -0.345474        -0.995172
 C         2.643170         0.461596        -2.317227
 C         2.317885         1.906841        -1.879743
 C         2.264215         1.749254        -0.330060
 O         1.936585         2.807147         0.458814
 H        -0.513076         0.675075         0.969903
 H        -0.668975         0.537299        -0.742168
 H        -0.294819        -0.887065         0.100412
 H         4.324365         0.343063         0.409289
 H         2.488559        -1.476786        -1.107473
 H         3.684690         0.242111        -2.644730
 H         1.902017         0.040972        -2.974825
 H         3.096484         2.607935        -2.117524
 H         1.406843         2.221975        -2.360365
 H         2.319823         2.746864         1.371430
