19
Iteration:  1783
 C        -0.059340         0.141511        -0.037718
 C         1.451129         0.358732        -0.016154
 O         2.334585         0.137352         1.157967
 C         3.236998         0.629311         0.088129
 C         2.450493        -0.281376        -0.907511
 C         2.479045         0.383134        -2.319690
 C         2.266834         1.856164        -1.858444
 C         2.171868         1.622988        -0.332320
 O         2.074136         2.824284         0.480606
 H        -0.533920         0.983522         0.533268
 H        -0.249607         0.525458        -1.111217
 H        -0.336173        -0.890810         0.056040
 H         4.348488         0.658193         0.394823
 H         2.586033        -1.382479        -0.855463
 H         3.524608         0.310274        -2.785155
 H         1.791400        -0.106388        -2.956022
 H         3.206081         2.387355        -2.020236
 H         1.365208         2.253848        -2.310729
 H         1.682316         2.492955         1.316010
