19
Iteration:   953charge 0 multiplicity 1
 C        -0.015340        -0.104540         0.019257
 C         1.384273         0.430829        -0.039357
 O         2.233590         0.120590         1.154341
 C         3.214316         0.563903         0.095007
 C         2.323663        -0.239857        -0.960736
 C         2.511801         0.320933        -2.316509
 C         2.415697         1.893394        -1.826945
 C         2.233162         1.772529        -0.300705
 O         2.135639         2.941883         0.419600
 H        -0.675938         0.460108         0.775809
 H        -0.391907        -0.055455        -0.958836
 H         0.104826        -1.225783         0.282231
 H         4.243466         0.497361         0.258139
 H         2.293394        -1.284442        -0.735558
 H         3.277390         0.187289        -2.915437
 H         1.602255         0.201001        -2.975967
 H         3.353740         2.472734        -2.050733
 H         1.597888         2.494194        -2.339733
 H         1.765598         2.757445         1.307179
