19
Iteration:  3921charge 0 multiplicity 1
 C        -0.085701        -0.033915         0.025485
 C         1.413764         0.417471        -0.117409
 O         2.316261         0.101481         1.126361
 C         3.183686         0.441535         0.115971
 C         2.481426        -0.291999        -0.946131
 C         2.557154         0.423312        -2.325266
 C         2.350532         1.947985        -1.853363
 C         2.226835         1.796199        -0.324026
 O         2.056888         2.895678         0.512855
 H        -0.586227         0.607620         0.824569
 H        -0.646832         0.209631        -0.953627
 H        -0.289026        -1.048057         0.315447
 H         4.286096         0.415554         0.420469
 H         2.279137        -1.352338        -0.734996
 H         3.414713         0.302018        -2.984926
 H         1.609770         0.232318        -2.926630
 H         3.295093         2.529570        -2.120716
 H         1.508464         2.356060        -2.344461
 H         1.520837         2.533375         1.244892
