19
Iteration:  2257
 C        -0.039164         0.250896         0.030755
 C         1.452726         0.277496        -0.110084
 O         2.233650         0.186664         1.163631
 C         3.219871         0.498304         0.119375
 C         2.547744        -0.353843        -0.962586
 C         2.617914         0.450644        -2.250371
 C         2.179700         1.902597        -1.874500
 C         2.232859         1.636641        -0.342294
 O         2.024902         2.782063         0.433472
 H        -0.430376         1.087654         0.739976
 H        -0.435384         0.395022        -0.945837
 H        -0.418260        -0.700416         0.476083
 H         4.251671         0.815240         0.399093
 H         2.681444        -1.378579        -1.055076
 H         3.610584         0.274898        -2.800704
 H         1.888911        -0.065075        -2.870091
 H         2.776694         2.736668        -2.190008
 H         1.079410         2.207877        -2.039374
 H         2.205991         2.314872         1.276966
