19
Iteration:    92
 C        -0.080422         0.126403         0.034319
 C         1.426320         0.348349        -0.057766
 O         2.268096         0.060408         1.120281
 C         3.256406         0.684659         0.125769
 C         2.441740        -0.323686        -0.926801
 C         2.514904         0.341111        -2.282924
 C         2.414593         1.858401        -1.821812
 C         2.263239         1.708137        -0.307588
 O         1.967861         2.871568         0.379127
 H        -0.399799         0.896480         0.681898
 H        -0.476424         0.292959        -1.049953
 H        -0.220759        -0.835603         0.483578
 H         4.325938         0.853877         0.330673
 H         2.628347        -1.422867        -0.778018
 H         3.443707         0.116683        -2.800029
 H         1.646865         0.078730        -2.970249
 H         3.096320         2.580177        -2.212252
 H         1.366098         2.090846        -2.276120
 H         1.859576         2.659311         1.310267
