19
Iteration:  1048charge 0 multiplicity 1
 C        -0.059782         0.319559         0.118733
 C         1.462604         0.311966        -0.038229
 O         2.294686         0.166870         1.163714
 C         3.250327         0.498635         0.078525
 C         2.517961        -0.393472        -1.012965
 C         2.582244         0.483266        -2.310295
 C         2.237594         1.850804        -1.795746
 C         2.266761         1.627148        -0.331874
 O         1.880298         2.786533         0.354950
 H        -0.425657         1.139792         0.712169
 H        -0.367552         0.340238        -0.947139
 H        -0.253662        -0.715748         0.457434
 H         4.305948         0.454074         0.501003
 H         2.630303        -1.484233        -1.065696
 H         3.758570         0.426036        -2.621121
 H         2.008593        -0.025503        -3.075443
 H         3.057294         2.516196        -1.982953
 H         1.339329         2.371109        -2.200511
 H         1.935173         2.490320         1.292356
