19
Iteration:  1435charge 0 multiplicity 1
 C        -0.099445         0.065678         0.026833
 C         1.438268         0.407409        -0.015071
 O         2.332751         0.177323         1.227575
 C         3.241969         0.543070         0.147911
 C         2.446993        -0.276734        -0.966629
 C         2.483866         0.361703        -2.280673
 C         2.347875         1.846439        -1.928360
 C         2.260923         1.694120        -0.401506
 O         2.021346         2.869744         0.421933
 H        -0.555562         0.775870         0.759367
 H        -0.557081         0.259442        -1.058570
 H        -0.259784        -0.950779         0.361912
 H         4.278635         0.498177         0.349292
 H         2.611806        -1.356431        -0.881793
 H         3.266963         0.278373        -3.075942
 H         1.581843        -0.090924        -2.768325
 H         3.249480         2.384490        -2.222581
 H         1.413321         2.341321        -2.289072
 H         1.751205         2.555889         1.316073
