19
Iteration:  3048
 C        -0.072122        -0.060829         0.028967
 C         1.349428         0.262353        -0.009400
 O         2.202323         0.174607         1.237150
 C         3.148245         0.592601         0.146682
 C         2.527510        -0.304257        -0.924051
 C         2.575519         0.451506        -2.345750
 C         2.194231         1.897883        -1.842890
 C         2.216293         1.683307        -0.372416
 O         2.269143         2.969274         0.341206
 H        -0.560692         0.631716         0.670182
 H        -0.474283         0.033478        -0.975239
 H        -0.352329        -1.145185         0.367205
 H         4.226355         0.637891         0.387785
 H         2.760054        -1.339100        -0.908321
 H         3.545418         0.263899        -2.812876
 H         2.001882        -0.100027        -3.090165
 H         2.961611         2.579889        -2.129597
 H         1.222296         2.447477        -2.135506
 H         1.748377         2.568107         1.070928
