19
Iteration:  4912
 C        -0.082079         0.316746         0.178272
 C         1.420239         0.297036        -0.135862
 O         2.324321         0.050850         1.095652
 C         3.206364         0.555810         0.139212
 C         2.590437        -0.311524        -0.966125
 C         2.619766         0.402215        -2.267924
 C         2.391345         1.899286        -1.890937
 C         2.212596         1.676952        -0.351354
 O         1.841102         2.769818         0.404506
 H        -0.307362         0.860182         1.061382
 H        -0.689592         0.873058        -0.570417
 H        -0.600784        -0.589125         0.296442
 H         4.245931         0.668907         0.317154
 H         2.655054        -1.429995        -0.858166
 H         3.466055         0.153199        -2.897932
 H         1.810061        -0.003318        -2.843269
 H         3.215529         2.460739        -2.157700
 H         1.417438         2.413855        -2.282442
 H         1.724713         2.559971         1.332955
