19
Iteration:  2778charge 0 multiplicity 1
 C        -0.071580         0.191180         0.063674
 C         1.459193         0.371186        -0.070088
 O         2.234129         0.088266         1.148163
 C         3.249848         0.567713         0.105488
 C         2.533777        -0.300601        -0.883476
 C         2.624147         0.368346        -2.299375
 C         2.240156         1.925255        -1.863089
 C         2.174431         1.656291        -0.379289
 O         2.053207         2.795261         0.405559
 H        -0.468243         1.042555         0.546166
 H        -0.489897         0.094729        -0.928683
 H        -0.232205        -0.701068         0.771917
 H         4.250646         0.850250         0.410190
 H         2.591846        -1.355641        -0.883618
 H         3.444978         0.248461        -2.953902
 H         1.685972         0.057222        -2.802821
 H         2.966407         2.816584        -2.133322
 H         1.304295         2.113213        -2.385203
 H         1.719962         2.484421         1.281655
