19
Iteration:  2638
 C        -0.070199         0.315646         0.109051
 C         1.406270         0.337136        -0.077069
 O         2.304627         0.085799         1.119862
 C         3.276261         0.490015         0.074297
 C         2.553148        -0.329019        -0.937379
 C         2.618846         0.350155        -2.296276
 C         2.324073         1.932822        -1.894536
 C         2.130662         1.665968        -0.355616
 O         1.839855         2.775329         0.462912
 H        -0.190293         1.116650         0.797523
 H        -0.399648         0.659899        -0.877007
 H        -0.512153        -0.614331         0.608338
 H         4.398679         0.531426         0.291172
 H         2.593681        -1.379867        -0.703381
 H         3.688647         0.328850        -2.724372
 H         2.017826        -0.105435        -3.068956
 H         3.178029         2.507564        -2.065962
 H         1.495742         2.344659        -2.444147
 H         2.424204         2.815205         1.260191
