19
Iteration:   591charge 0 multiplicity 1
 C        -0.087396        -0.060864         0.093506
 C         1.362934         0.491814        -0.092426
 O         2.225185         0.091654         1.150165
 C         3.172148         0.628414         0.098161
 C         2.467004        -0.289334        -0.903402
 C         2.434295         0.400768        -2.309051
 C         2.496753         1.901934        -1.937035
 C         2.297985         1.692962        -0.342025
 O         2.052993         2.893276         0.440316
 H        -0.732692         0.314718         0.833557
 H        -0.608637        -0.016805        -0.928608
 H         0.051987        -1.100138         0.265578
 H         4.243687         0.649020         0.304431
 H         2.636380        -1.493339        -0.559136
 H         3.283988         0.202697        -2.905625
 H         1.355570         0.148001        -2.791200
 H         3.517495         2.289216        -2.041045
 H         1.726513         2.493668        -2.423596
 H         2.234256         2.717036         1.372388
