19
Iteration:  3911charge 0 multiplicity 1
 C        -0.052785         0.101421        -0.025982
 C         1.408776         0.384942        -0.067213
 O         2.325058         0.053093         1.182021
 C         3.238561         0.503385         0.130781
 C         2.436752        -0.307515        -0.938659
 C         2.547047         0.466584        -2.323033
 C         2.312760         1.961332        -1.874969
 C         2.212622         1.702647        -0.317744
 O         2.001798         2.832442         0.466675
 H        -0.471109         0.734936         0.841078
 H        -0.629878         0.364815        -1.001010
 H        -0.200384        -0.931030         0.073170
 H         4.351286         0.678633         0.273817
 H         2.654596        -1.401798        -0.851218
 H         3.463185         0.128993        -2.802549
 H         1.709845         0.073746        -2.943222
 H         3.188049         2.559009        -2.189205
 H         1.451171         2.445717        -2.306981
 H         1.895641         2.567530         1.401306
