19
Iteration:    15
 C        -0.165918        -0.045854         0.007948
 C         1.368452         0.388557        -0.048367
 O         2.329904         0.173899         1.320718
 C         3.232549         0.555723         0.117079
 C         2.478392        -0.292988        -0.917852
 C         2.606197         0.360260        -2.319510
 C         2.379406         1.909559        -2.026755
 C         2.203479         1.763010        -0.386608
 O         2.062706         2.912906         0.479715
 H        -0.682200         0.599637         0.659459
 H        -0.690559         0.126314        -1.193557
 H        -0.172387        -1.105067         0.331744
 H         4.303632         0.688069         0.261830
 H         2.304708        -1.425896        -0.965137
 H         3.314046        -0.009394        -3.022902
 H         1.523840         0.060148        -2.659939
 H         3.127906         2.593757        -2.259950
 H         1.324614         2.141843        -2.558589
 H         2.029094         2.436000         1.367400
