19
Iteration:  3776charge 0 multiplicity 1
 C        -0.033312        -0.103781         0.034955
 C         1.395482         0.335886        -0.137131
 O         2.222239         0.123281         1.105514
 C         3.104082         0.510050         0.159309
 C         2.470456        -0.272041        -0.963254
 C         2.442113         0.438914        -2.336170
 C         2.427538         1.988686        -1.860796
 C         2.183347         1.764680        -0.272623
 O         2.188051         2.979220         0.480611
 H        -0.674167         0.466041         0.656871
 H        -0.463375        -0.509596        -0.852090
 H         0.295388        -1.100839         0.620308
 H         4.128825         0.369030         0.491311
 H         2.328442        -1.354943        -0.940540
 H         3.384900         0.080100        -2.765852
 H         1.547614         0.082747        -3.018602
 H         3.520906         2.310869        -2.022835
 H         1.712243         2.489693        -2.424841
 H         1.665992         2.735645         1.254810
