19
Iteration:  1369
 C         0.004308         0.318140         0.191995
 C         1.452644         0.424120        -0.000014
 O         2.265672         0.052300         1.132728
 C         3.264486         0.558877         0.043720
 C         2.424321        -0.327764        -0.916153
 C         2.738524         0.391199        -2.306353
 C         2.204208         1.833527        -1.912359
 C         2.251162         1.706412        -0.352075
 O         1.880499         2.768492         0.362850
 H        -0.281941         1.114806         0.977161
 H        -0.642400         0.468112        -0.792835
 H        -0.276576        -0.627107         0.671857
 H         4.321226         0.600942         0.134624
 H         2.455294        -1.461271        -0.899015
 H         3.888611         0.214128        -2.494805
 H         2.138910         0.007043        -3.178049
 H         2.924005         2.553319        -2.293057
 H         1.205635         1.975376        -2.428487
 H         1.736487         2.309994         1.255226
