19
Iteration:    86charge 0 multiplicity 1
 C        -0.087339         0.064784         0.045016
 C         1.405941         0.327789        -0.084770
 O         2.260577         0.083563         1.115999
 C         3.277971         0.672678         0.200360
 C         2.469296        -0.269805        -0.941208
 C         2.468146         0.345638        -2.291318
 C         2.366876         1.844946        -1.840520
 C         2.345722         1.721263        -0.333913
 O         1.996094         2.878365         0.367952
 H        -0.651889         0.919884         0.646610
 H        -0.551787         0.205562        -0.908124
 H        -0.492703        -0.950183         0.382619
 H         4.300206         0.845268         0.602676
 H         2.596956        -1.320092        -0.847437
 H         3.454146         0.099264        -2.809786
 H         1.662881         0.055402        -2.914535
 H         3.211042         2.520931        -2.277079
 H         1.446228         2.266919        -2.103865
 H         1.848815         2.622140         1.307858
