19
Iteration:  4335
 C        -0.077658         0.051270        -0.163048
 C         1.400169         0.356200        -0.087046
 O         2.379375         0.120800         1.283596
 C         3.231519         0.610125         0.101749
 C         2.447091        -0.244456        -0.915263
 C         2.457187         0.330407        -2.331120
 C         2.299490         1.855175        -1.858879
 C         2.209209         1.656972        -0.299229
 O         2.057573         2.942639         0.476063
 H        -0.518628         0.766380         0.523091
 H        -0.665592         0.015925        -1.178614
 H        -0.020838        -0.936528         0.334403
 H         4.321140         0.624176         0.352874
 H         2.472373        -1.364177        -0.835824
 H         3.291204        -0.030234        -2.861683
 H         1.606947         0.072453        -3.031393
 H         3.216768         2.505097        -2.130455
 H         1.520251         2.435067        -2.254536
 H         2.070495         2.657152         1.436731
