19
Iteration:  3429charge 0 multiplicity 1
 C        -0.078305        -0.031735        -0.082648
 C         1.433897         0.413636        -0.037895
 O         2.243956         0.176802         1.151074
 C         3.267722         0.635071         0.145026
 C         2.461543        -0.310827        -0.935430
 C         2.329658         0.332713        -2.189504
 C         2.399703         1.916757        -1.889601
 C         2.316523         1.767726        -0.322238
 O         2.068861         2.868713         0.405564
 H        -0.855715         0.368143         0.525162
 H        -0.228520         0.117878        -1.134435
 H        -0.064321        -1.202727         0.108011
 H         4.304115         0.613915         0.658413
 H         2.603210        -1.355573        -0.588142
 H         3.099265         0.020866        -2.936914
 H         1.339703        -0.010432        -2.540351
 H         3.366951         2.096994        -2.273909
 H         1.621036         2.465637        -2.473175
 H         2.127699         2.632369         1.366218
