19
Iteration:  2528charge 0 multiplicity 1
 C        -0.002476        -0.048262        -0.002589
 C         1.417221         0.412887        -0.050139
 O         2.151535         0.144903         1.177196
 C         3.233878         0.620783         0.180598
 C         2.503116        -0.293543        -0.882171
 C         2.354385         0.436696        -2.336576
 C         2.514069         1.904632        -1.831817
 C         2.263737         1.675181        -0.397626
 O         2.012128         2.839789         0.373710
 H        -0.316338         0.595209         0.783382
 H        -0.660994         0.149857        -0.873363
 H        -0.222757        -1.159833         0.313818
 H         4.296498         0.617164         0.482528
 H         2.450299        -1.353628        -0.794277
 H         3.082287         0.193616        -3.186695
 H         1.340315         0.284183        -2.694679
 H         3.466086         2.261983        -2.058681
 H         1.814321         2.606633        -2.205410
 H         2.605846         2.695694         1.130921
