19
Iteration:   137
 C        -0.100946         0.309212         0.144788
 C         1.423680         0.320135        -0.098641
 O         2.263429         0.196945         1.206846
 C         3.206776         0.570330         0.058366
 C         2.490731        -0.361971        -0.933497
 C         2.676998         0.436767        -2.309197
 C         2.345706         1.892448        -1.873149
 C         2.331729         1.623870        -0.407171
 O         1.877579         2.680532         0.390461
 H        -0.327863         1.124562         0.898678
 H        -0.763257         0.582948        -0.825044
 H        -0.218294        -0.682013         0.592191
 H         4.278383         0.548817         0.336866
 H         2.684021        -1.432607        -0.859325
 H         3.733269         0.212655        -2.711764
 H         1.874745         0.169267        -3.012506
 H         2.896478         2.792491        -2.293208
 H         1.198147         1.991053        -2.068567
 H         1.778261         2.303498         1.273629
