19
Iteration:   333charge 0 multiplicity 1
 C        -0.106824         0.277060         0.126412
 C         1.376771         0.316215        -0.041564
 O         2.347159         0.077873         1.190401
 C         3.134140         0.573128         0.161453
 C         2.556627        -0.318591        -0.990686
 C         2.659319         0.438708        -2.306336
 C         2.260124         1.886605        -1.835002
 C         2.191414         1.616657        -0.372080
 O         2.010366         2.777209         0.329050
 H        -0.483312         1.061207         0.732932
 H        -0.547556         0.419348        -0.910022
 H        -0.512893        -0.705597         0.382014
 H         4.223345         0.722605         0.400680
 H         2.880241        -1.354054        -0.980917
 H         3.628020         0.369214        -2.905748
 H         1.778800         0.050136        -2.821746
 H         2.965407         2.722323        -2.233347
 H         1.188962         2.018747        -2.312850
 H         2.187810         2.674244         1.300876
