19
Iteration:  1732charge 0 multiplicity 1
 C         0.003515         0.334633         0.185364
 C         1.508629         0.415686        -0.035757
 O         2.275479         0.047016         1.159181
 C         3.210995         0.515479         0.086296
 C         2.513350        -0.334274        -1.030951
 C         2.568041         0.365337        -2.316001
 C         2.356899         1.886515        -1.859448
 C         2.251948         1.684709        -0.384105
 O         1.787404         2.762102         0.404043
 H        -0.238593         1.076248         0.868352
 H        -0.519528         0.605922        -0.749259
 H        -0.261317        -0.724052         0.468326
 H         4.222907         0.703182         0.607455
 H         2.672272        -1.458918        -0.958206
 H         3.574620         0.300626        -2.806389
 H         1.847614         0.020628        -3.095190
 H         3.260445         2.551129        -2.085591
 H         1.468027         2.251574        -2.476306
 H         1.886366         2.448360         1.337344
