19
Iteration:  1857charge 0 multiplicity 1
 C        -0.171573        -0.052119         0.109112
 C         1.360617         0.343875        -0.036816
 O         2.265401         0.099403         1.074313
 C         3.186520         0.563756         0.122067
 C         2.517596        -0.259332        -0.960103
 C         2.548041         0.422994        -2.315289
 C         2.395357         1.924918        -1.833568
 C         2.205340         1.741991        -0.339753
 O         2.132650         2.906460         0.423300
 H        -0.614923         0.785525         0.790513
 H        -0.630631         0.005748        -0.896063
 H        -0.317550        -0.979328         0.661726
 H         4.170192         0.551290         0.400473
 H         2.597637        -1.342209        -0.955487
 H         3.439279         0.091421        -2.870700
 H         1.614947         0.280008        -2.952823
 H         3.368290         2.427713        -2.149600
 H         1.589333         2.394328        -2.382448
 H         1.802535         2.605977         1.311776
