19
Iteration:  1575
 C         0.046866         0.319843         0.186708
 C         1.444109         0.386798        -0.052158
 O         2.244499         0.081506         1.163296
 C         3.162676         0.580964         0.136037
 C         2.545279        -0.365543        -0.948343
 C         2.616905         0.336482        -2.326411
 C         2.303175         1.868646        -1.926768
 C         2.185898         1.680099        -0.463048
 O         1.909402         2.747802         0.412595
 H        -0.228356         1.075721         0.924913
 H        -0.473076         0.687740        -0.667497
 H        -0.364579        -0.571209         0.490885
 H         4.300091         0.799321         0.455906
 H         2.670478        -1.408301        -0.857486
 H         3.564642         0.424880        -2.873775
 H         1.930126         0.024731        -3.073556
 H         3.177913         2.466248        -2.045238
 H         1.359792         2.342649        -2.266403
 H         1.823520         2.336916         1.290982
