19
Iteration:   443charge 0 multiplicity 1
 C        -0.115210         0.120917         0.101723
 C         1.417937         0.460955        -0.039328
 O         2.350390         0.047664         1.106723
 C         3.231151         0.534569         0.179143
 C         2.438820        -0.312720        -0.940325
 C         2.501550         0.361132        -2.320280
 C         2.385815         1.844506        -1.791336
 C         2.237706         1.725812        -0.355668
 O         1.981983         2.900796         0.334823
 H        -0.746916         0.753628         0.718212
 H        -0.483977         0.267658        -0.898895
 H        -0.107732        -0.964539         0.393577
 H         4.299229         0.597597         0.457143
 H         2.576642        -1.307524        -0.825055
 H         3.531994         0.320548        -2.860154
 H         1.789166         0.075009        -3.055827
 H         3.256429         2.477797        -2.124527
 H         1.508186         2.465585        -2.199964
 H         1.772873         2.460921         1.190893
