19
Iteration:  2859
 C        -0.034863         0.111690         0.066793
 C         1.422164         0.365105        -0.110827
 O         2.255515         0.138388         1.199574
 C         3.217643         0.626200         0.180364
 C         2.506504        -0.301428        -0.957313
 C         2.514092         0.313767        -2.389276
 C         2.384464         1.862476        -1.857722
 C         2.175663         1.715013        -0.418421
 O         2.033132         2.870323         0.475987
 H        -0.466211         0.732395         0.912727
 H        -0.646030         0.237056        -0.838975
 H        -0.069696        -0.903770         0.235813
 H         4.323272         0.641948         0.444205
 H         2.586692        -1.433096        -0.843569
 H         3.396042         0.092014        -3.065510
 H         1.609040         0.025684        -2.890826
 H         3.206555         2.534444        -2.116797
 H         1.395470         2.198936        -2.288266
 H         1.707408         2.569314         1.349096
