19
Iteration:   763charge 0 multiplicity 1
 C        -0.050293        -0.138721         0.093440
 C         1.368647         0.252552        -0.084514
 O         2.198856         0.271408         1.205945
 C         3.163609         0.545664         0.132593
 C         2.439560        -0.308582        -0.959791
 C         2.409577         0.509720        -2.355763
 C         2.508044         1.920146        -1.810331
 C         2.268771         1.644863        -0.350762
 O         2.077227         2.915663         0.357631
 H        -0.465742         0.527174         0.864910
 H        -0.657692         0.105404        -0.901157
 H        -0.291677        -1.152008         0.364699
 H         4.239578         0.501286         0.490939
 H         2.592395        -1.396760        -1.074413
 H         3.294856         0.282159        -2.980462
 H         1.596630         0.265010        -2.976063
 H         3.540400         2.370942        -1.879722
 H         1.912912         2.749156        -2.306569
 H         2.406848         2.795143         1.270732
