19
Iteration:  2382
 C        -0.024471         0.000968         0.000726
 C         1.398487         0.420271        -0.056274
 O         2.244631         0.176815         1.123275
 C         3.239724         0.633727         0.114937
 C         2.412732        -0.318284        -0.869021
 C         2.424439         0.414917        -2.302352
 C         2.478409         1.862134        -1.862796
 C         2.221024         1.695534        -0.345605
 O         2.056063         2.827830         0.420078
 H        -0.638413         0.530680         0.788361
 H        -0.439172         0.075974        -1.054647
 H        -0.284983        -1.018449         0.294760
 H         4.314345         0.621286         0.319462
 H         2.601188        -1.456481        -0.732045
 H         3.123852         0.084722        -3.024680
 H         1.350352         0.266970        -2.799552
 H         3.428334         2.491422        -1.819357
 H         1.812267         2.548101        -2.272690
 H         2.004497         2.419311         1.318597
