19
Iteration:   489charge 0 multiplicity 1
 C        -0.124800         0.347965         0.125380
 C         1.418012         0.351526        -0.059755
 O         2.307632         0.171843         1.107377
 C         3.173889         0.595966         0.109880
 C         2.600582        -0.303522        -0.920646
 C         2.632555         0.445922        -2.318260
 C         2.230573         1.789354        -1.883492
 C         2.215518         1.599207        -0.372926
 O         1.985532         2.659614         0.447035
 H        -0.430866         1.219817         0.752517
 H        -0.537493         0.570797        -0.805013
 H        -0.466284        -0.588575         0.526001
 H         4.225679         0.676561         0.419328
 H         2.750876        -1.333551        -0.924565
 H         3.701367         0.360954        -2.771456
 H         1.985336         0.030844        -3.047145
 H         2.953658         2.552221        -2.333644
 H         1.265769         2.083178        -2.355126
 H         1.991592         2.344367         1.375035
