19
Iteration:  3329
 C        -0.174466         0.299804         0.234195
 C         1.370330         0.302984        -0.066568
 O         2.318194         0.148935         1.158336
 C         3.231575         0.580675         0.043097
 C         2.493741        -0.307118        -0.930680
 C         2.752330         0.433115        -2.264166
 C         2.324258         1.901969        -1.903314
 C         2.189890         1.612938        -0.413526
 O         1.899792         2.681183         0.333871
 H        -0.296658         1.143051         0.975276
 H        -0.746778         0.533644        -0.658892
 H        -0.462320        -0.614552         0.814488
 H         4.338518         0.772277         0.110114
 H         2.766423        -1.349788        -0.978063
 H         3.752305         0.142702        -2.633901
 H         2.143405        -0.015574        -3.045227
 H         3.153633         2.649948        -1.910094
 H         1.452203         2.325691        -2.344709
 H         2.039748         2.374902         1.269642
