19
Iteration:  3457charge 0 multiplicity 1
 C        -0.000935         0.020292         0.118646
 C         1.411988         0.402280        -0.078435
 O         2.211750         0.264545         1.224001
 C         3.146928         0.517987         0.154126
 C         2.512537        -0.320114        -1.029942
 C         2.488037         0.400804        -2.341080
 C         2.395237         1.899018        -1.817682
 C         2.217639         1.665228        -0.379193
 O         2.041095         2.803777         0.346980
 H        -0.414637         0.607435         1.005109
 H        -0.465402         0.433651        -0.818855
 H        -0.147044        -1.009078         0.185354
 H         4.112290         0.724017         0.559525
 H         2.731719        -1.368271        -0.904796
 H         3.402760         0.249870        -2.882492
 H         1.570684        -0.005008        -2.814492
 H         3.434432         2.352103        -2.094858
 H         1.684654         2.549675        -2.299913
 H         1.871079         2.493215         1.278705
