19
Iteration:  3882
 C        -0.018493         0.339565        -0.062080
 C         1.417570         0.251792        -0.065535
 O         2.310844         0.125001         1.160352
 C         3.272730         0.548823         0.125109
 C         2.609460        -0.367508        -0.976127
 C         2.567560         0.475513        -2.350477
 C         2.170571         1.859690        -1.774908
 C         2.198061         1.577715        -0.289508
 O         1.912988         2.754747         0.469477
 H        -0.266620         0.967303         0.824132
 H        -0.210535         0.987988        -0.876029
 H        -0.685119        -0.560506        -0.085711
 H         4.298866         0.747948         0.353260
 H         2.978111        -1.420978        -0.870218
 H         3.434851         0.324537        -3.029219
 H         1.756672         0.046741        -2.890720
 H         2.868742         2.611491        -2.098809
 H         1.195857         2.352851        -2.156543
 H         2.321760         2.770819         1.346956
