19
Iteration:  3954charge 0 multiplicity 1
 C        -0.013599        -0.160887         0.113982
 C         1.337856         0.323631        -0.116608
 O         2.177799         0.114533         1.207972
 C         3.101594         0.597927         0.150100
 C         2.447857        -0.251133        -0.983979
 C         2.504924         0.533889        -2.355525
 C         2.462733         1.992435        -1.807994
 C         2.200449         1.702943        -0.399128
 O         2.174628         2.816298         0.376802
 H        -0.514767         0.717835         0.639768
 H        -0.580290        -0.209820        -0.880281
 H        -0.043481        -1.033841         0.700905
 H         4.186264         0.675365         0.490198
 H         2.366117        -1.332465        -0.817387
 H         3.392724         0.462026        -2.970609
 H         1.635662         0.364070        -3.058271
 H         3.432100         2.580493        -1.822940
 H         1.761112         2.636208        -2.286562
 H         2.108904         2.523335         1.304523
