19
Iteration:  2393charge 0 multiplicity 1
 C        -0.096161         0.020032         0.010445
 C         1.379695         0.344749        -0.009072
 O         2.306509         0.211634         1.225761
 C         3.147152         0.531177         0.090496
 C         2.494468        -0.327077        -0.949545
 C         2.478872         0.417258        -2.304915
 C         2.390767         1.928899        -1.857322
 C         2.196227         1.700665        -0.390279
 O         2.054706         2.840515         0.437323
 H        -0.693061         0.792484         0.534827
 H        -0.345620         0.283157        -1.055055
 H        -0.231206        -1.045806         0.184563
 H         4.230883         0.574236         0.249073
 H         2.606842        -1.466436        -0.802184
 H         3.381966         0.282967        -2.854042
 H         1.585311         0.049526        -2.972121
 H         3.478891         2.201985        -2.021945
 H         1.754737         2.572096        -2.383349
 H         2.441386         2.680195         1.308054
