19
Iteration:  4062charge 0 multiplicity 1
 C        -0.033143         0.267887         0.049754
 C         1.422812         0.410437        -0.085872
 O         2.301712         0.077931         1.181392
 C         3.265942         0.413030         0.111363
 C         2.552116        -0.252034        -0.929318
 C         2.600832         0.360295        -2.271684
 C         2.253000         1.965894        -1.942079
 C         2.118682         1.678482        -0.426429
 O         1.914529         2.771029         0.528165
 H        -0.397689         0.666282         0.967930
 H        -0.454829         0.630046        -0.918795
 H        -0.281871        -0.796976         0.113406
 H         4.382282         0.361669         0.252818
 H         2.580086        -1.321379        -0.772937
 H         3.580162         0.349512        -2.692548
 H         1.990295        -0.026831        -3.154497
 H         3.088697         2.765791        -2.253969
 H         1.305489         2.331350        -2.342734
 H         2.463970         2.469916         1.253298
