19
Iteration:  4418charge 0 multiplicity 1
 C        -0.046979         0.167370         0.171248
 C         1.407370         0.353865         0.009821
 O         2.229752         0.058129         1.202293
 C         3.200545         0.619472        -0.015908
 C         2.516347        -0.251732        -0.974560
 C         2.658851         0.411306        -2.286909
 C         2.392371         1.880486        -1.977984
 C         2.230387         1.712045        -0.387485
 O         1.899499         2.778531         0.456717
 H        -0.594519         0.920487         0.826055
 H        -0.563250         0.287450        -0.758475
 H        -0.555641        -0.811356         0.544283
 H         4.273592         0.680765         0.095071
 H         2.495963        -1.271389        -0.792609
 H         3.770631         0.156214        -2.486713
 H         1.917577         0.157065        -3.062084
 H         3.269105         2.381836        -2.259370
 H         1.437969         2.174760        -2.600648
 H         2.057133         2.367018         1.361658
