19
Iteration:  3794charge 0 multiplicity 1
 C        -0.087274        -0.160874         0.127718
 C         1.369735         0.394787        -0.053425
 O         2.120455         0.073882         1.135551
 C         3.180245         0.624188         0.061846
 C         2.428915        -0.267779        -1.016459
 C         2.549404         0.428245        -2.338896
 C         2.469530         1.922072        -1.789821
 C         2.233998         1.731777        -0.331221
 O         2.145508         2.931648         0.439585
 H        -0.656601         0.707244         0.604812
 H        -0.607452        -0.313622        -0.818502
 H        -0.103599        -1.080967         0.685980
 H         4.218213         0.772723         0.346847
 H         2.774931        -1.340082        -1.023592
 H         3.429361         0.324602        -3.048493
 H         1.705051         0.332209        -2.969640
 H         3.354001         2.447313        -2.103853
 H         1.582342         2.605439        -2.251259
 H         2.196318         2.533735         1.328213
