19
Iteration:   934
 C        -0.071020        -0.121191         0.069464
 C         1.309799         0.399264        -0.057633
 O         2.260897         0.065389         1.181873
 C         3.086364         0.565003         0.114623
 C         2.486508        -0.287824        -0.925391
 C         2.401520         0.473685        -2.310383
 C         2.493716         1.894692        -1.864468
 C         2.188599         1.740685        -0.375237
 O         2.220451         2.962636         0.388339
 H        -0.745636         0.435010         0.792988
 H        -0.623487        -0.243943        -0.860193
 H         0.106661        -1.168064         0.349732
 H         4.096911         0.915354         0.456180
 H         2.657765        -1.320092        -0.973185
 H         3.407492         0.145469        -2.831953
 H         1.578839         0.084666        -2.969948
 H         3.445307         2.416426        -1.916549
 H         1.830817         2.546892        -2.301200
 H         1.686917         2.916335         1.187281
