19
Iteration:   439charge 0 multiplicity 1
 C        -0.147558         0.092800         0.095584
 C         1.414588         0.439412        -0.048334
 O         2.366799         0.023039         1.134147
 C         3.231228         0.579779         0.203642
 C         2.435865        -0.285405        -0.913517
 C         2.502483         0.352512        -2.346366
 C         2.381602         1.905670        -1.814264
 C         2.243180         1.714786        -0.372718
 O         2.007166         2.902647         0.343719
 H        -0.783300         0.727112         0.725808
 H        -0.585939         0.236389        -1.001639
 H        -0.123988        -0.962266         0.368001
 H         4.290204         0.666467         0.472990
 H         2.552795        -1.508124        -0.915211
 H         3.420938         0.181939        -2.815211
 H         1.696402        -0.032088        -3.130523
 H         3.293847         2.334182        -2.144634
 H         1.601032         2.515509        -2.235447
 H         1.807225         2.581887         1.251062
