19
Iteration:   710
 C        -0.074241         0.175237        -0.028805
 C         1.426994         0.364083        -0.040673
 O         2.334615         0.118847         1.249718
 C         3.143973         0.592784         0.054334
 C         2.528565        -0.352772        -0.979902
 C         2.528100         0.381051        -2.301128
 C         2.319617         1.857986        -1.822735
 C         2.235913         1.683415        -0.373501
 O         2.011779         2.857760         0.463466
 H        -0.509635         0.919186         0.622380
 H        -0.444660         0.321433        -1.138385
 H        -0.335054        -0.801785         0.333390
 H         4.216655         0.551169         0.338973
 H         2.659709        -1.493489        -1.091040
 H         3.473797         0.224252        -2.815727
 H         1.633911         0.041911        -2.962236
 H         3.125464         2.619836        -2.034261
 H         1.306367         2.134331        -2.276893
 H         1.913896         2.580911         1.396072
