19
Iteration:   413charge 0 multiplicity 1
 C        -0.038471        -0.036585         0.022454
 C         1.417636         0.256005         0.004884
 O         2.217292         0.158209         1.185062
 C         3.136134         0.596681         0.085236
 C         2.505271        -0.302687        -0.921855
 C         2.403234         0.451489        -2.293792
 C         2.447135         1.869968        -1.830479
 C         2.148424         1.727054        -0.382269
 O         2.140308         2.935042         0.397126
 H        -0.552392         0.712000         0.682283
 H        -0.341417         0.179516        -0.944392
 H        -0.322423        -1.058577         0.289744
 H         4.215970         0.623492         0.278248
 H         2.882425        -1.305746        -0.942361
 H         3.148324         0.140817        -3.103170
 H         1.456083         0.295235        -2.730159
 H         3.471444         2.353588        -2.095575
 H         1.637274         2.342213        -2.398950
 H         2.334439         2.630246         1.311735
