19
Iteration:  4968
 C        -0.165100         0.101515        -0.039805
 C         1.435153         0.338463        -0.049551
 O         2.235944         0.112119         1.156414
 C         3.266427         0.637434         0.124176
 C         2.533602        -0.293378        -0.923086
 C         2.512674         0.402316        -2.264207
 C         2.263870         1.910432        -1.863426
 C         2.275071         1.706149        -0.384959
 O         2.098676         2.791326         0.464662
 H        -0.648542         0.891886         0.521134
 H        -0.567985         0.010510        -1.047601
 H        -0.325495        -0.857350         0.362893
 H         4.315056         0.508497         0.407168
 H         2.711258        -1.417575        -0.760663
 H         3.502739         0.324489        -2.734964
 H         1.699673         0.177609        -2.923893
 H         3.026296         2.493779        -2.281669
 H         1.230553         2.312677        -2.200093
 H         2.131544         2.609268         1.401103
