19
Iteration:  2908
 C        -0.054792        -0.118109        -0.050284
 C         1.330423         0.364969         0.021333
 O         2.280494         0.202088         1.276675
 C         3.072975         0.546190         0.124484
 C         2.446986        -0.277368        -0.956432
 C         2.579716         0.444932        -2.283297
 C         2.218131         1.851552        -1.845026
 C         2.201083         1.683459        -0.350396
 O         2.265080         2.932347         0.332005
 H        -0.688305         0.445969         0.611769
 H        -0.355119         0.195333        -1.070240
 H        -0.216907        -1.307593         0.031382
 H         4.109260         0.517872         0.398009
 H         2.664884        -1.310516        -0.831639
 H         3.589661         0.479010        -2.699144
 H         1.893346         0.131123        -3.179396
 H         3.056339         2.518429        -2.181264
 H         1.301500         2.287377        -2.162916
 H         2.270526         3.092071         1.293889
