19
Iteration:   996charge 0 multiplicity 1
 C        -0.067936         0.275724         0.004486
 C         1.421374         0.306858        -0.096867
 O         2.285901         0.174888         1.164978
 C         3.240584         0.624298         0.120375
 C         2.600770        -0.331320        -0.930558
 C         2.579741         0.397267        -2.378629
 C         2.228548         1.844213        -1.812436
 C         2.157525         1.592724        -0.346173
 O         2.020896         2.752905         0.462545
 H        -0.224356         1.146590         0.742585
 H        -0.450397         0.567942        -0.918611
 H        -0.550501        -0.662773         0.455519
 H         4.199173         0.870132         0.399785
 H         2.664793        -1.390457        -0.800507
 H         3.506914         0.135791        -2.828114
 H         1.804434        -0.121008        -3.029526
 H         2.963284         2.687512        -2.007673
 H         1.200316         2.261542        -2.221035
 H         1.939449         2.282236         1.312717
