19
Iteration:  4367charge 0 multiplicity 1
 C        -0.030467         0.211343         0.027035
 C         1.451501         0.294168         0.046805
 O         2.226717         0.127681         1.173211
 C         3.297912         0.587605         0.101653
 C         2.525408        -0.310088        -0.926519
 C         2.604010         0.449471        -2.334299
 C         2.238774         1.935609        -1.878816
 C         2.214006         1.602528        -0.358776
 O         1.982261         2.789301         0.379596
 H        -0.485227         1.036242         0.457872
 H        -0.577343         0.122562        -0.937172
 H        -0.549720        -0.588894         0.558293
 H         4.333247         0.463945         0.492007
 H         2.721195        -1.403033        -0.861580
 H         3.509380         0.077406        -2.793094
 H         1.774619         0.020534        -2.926336
 H         2.922773         2.732353        -2.199218
 H         1.218850         2.284485        -2.185490
 H         2.063391         2.478151         1.293043
