19
Iteration:   506charge 0 multiplicity 1
 C        -0.077569         0.311810         0.054350
 C         1.436859         0.381701        -0.070523
 O         2.237502         0.100028         1.199437
 C         3.290224         0.631883        -0.045487
 C         2.553220        -0.344795        -0.970601
 C         2.648735         0.279163        -2.314623
 C         2.214458         1.841817        -1.884455
 C         2.195889         1.695282        -0.403119
 O         1.990813         2.805362         0.582459
 H        -0.361082         1.126427         0.721559
 H        -0.662131         0.420304        -0.947471
 H        -0.520937        -0.678838         0.464853
 H         4.365219         0.747890         0.174831
 H         2.686686        -1.545603        -0.664607
 H         3.663671         0.195585        -2.685681
 H         1.983867        -0.187989        -3.183595
 H         2.816368         2.687465        -2.079284
 H         1.198598         2.023236        -2.268150
 H         1.922585         2.306766         1.441790
