19
Iteration:  2375charge 0 multiplicity 1
 C        -0.014004         0.013821        -0.010317
 C         1.412707         0.400308        -0.065175
 O         2.208315         0.156850         1.128893
 C         3.258891         0.639640         0.096690
 C         2.425833        -0.258905        -0.907372
 C         2.358332         0.368159        -2.289306
 C         2.549075         1.882454        -1.812733
 C         2.254525         1.711115        -0.337164
 O         2.049089         2.821636         0.418183
 H        -0.562545         0.521975         0.735343
 H        -0.675485         0.053243        -0.884992
 H         0.072988        -1.084560         0.371088
 H         4.270180         0.784918         0.494300
 H         2.453264        -1.340028        -0.818264
 H         3.063466        -0.062077        -3.071491
 H         1.391629         0.307028        -2.678845
 H         3.442728         2.426578        -2.015600
 H         1.669428         2.407111        -2.339936
 H         1.701567         2.400624         1.227004
