19
Iteration:  4093charge 0 multiplicity 1
 C        -0.032406         0.046111         0.137691
 C         1.347110         0.317155        -0.122831
 O         2.251119         0.111645         1.199959
 C         3.153433         0.551286         0.094631
 C         2.423122        -0.279743        -1.021057
 C         2.550945         0.444754        -2.359345
 C         2.424622         1.918650        -1.744501
 C         2.230616         1.653603        -0.320370
 O         2.075517         2.888359         0.351019
 H        -0.521868         0.498172         0.978142
 H        -0.661329         0.385753        -0.740391
 H        -0.139890        -1.167734         0.261940
 H         4.223628         0.754373         0.209301
 H         2.551454        -1.325491        -0.873283
 H         3.607870         0.382765        -2.635126
 H         1.930199         0.233538        -3.290786
 H         3.262911         2.711052        -1.985295
 H         1.443320         2.375352        -2.069500
 H         1.794580         2.474004         1.225620
