19
Iteration:  4094charge 0 multiplicity 1
 C        -0.030415         0.038246         0.140956
 C         1.347491         0.316691        -0.129164
 O         2.248180         0.105696         1.204491
 C         3.151014         0.551183         0.096744
 C         2.426404        -0.276172        -1.015735
 C         2.546932         0.445464        -2.365076
 C         2.423528         1.928060        -1.744010
 C         2.217983         1.660550        -0.318485
 O         2.086780         2.884322         0.345015
 H        -0.519986         0.510535         0.973000
 H        -0.676544         0.369591        -0.735818
 H        -0.119998        -1.129104         0.252326
 H         4.239886         0.752052         0.210047
 H         2.588173        -1.327657        -0.874462
 H         3.592983         0.361577        -2.611283
 H         1.906632         0.199733        -3.284776
 H         3.283711         2.732050        -1.956599
 H         1.472581         2.378621        -2.089030
 H         1.764144         2.487457         1.208537
