19
Iteration:   624charge 0 multiplicity 1
 C        -0.021394         0.112636         0.134278
 C         1.380704         0.317193        -0.041151
 O         2.228795         0.182685         1.238443
 C         3.209389         0.576988         0.090647
 C         2.441701        -0.344459        -0.955370
 C         2.590527         0.484143        -2.333620
 C         2.392004         1.968142        -1.916408
 C         2.194166         1.604942        -0.368020
 O         2.053045         2.751290         0.366990
 H        -0.411173         0.838844         0.802579
 H        -0.455225         0.348378        -0.887147
 H        -0.325898        -0.858581         0.449498
 H         4.287890         0.598396         0.277764
 H         2.447662        -1.526588        -0.705126
 H         3.472030         0.228796        -2.863750
 H         1.762297         0.301125        -3.186422
 H         3.147799         2.761979        -1.897072
 H         1.502674         2.419043        -2.375462
 H         1.705538         2.450951         1.243247
