19
Iteration:  4110
 C        -0.089577        -0.054231         0.114364
 C         1.373896         0.359189        -0.024861
 O         2.210190         0.044691         1.134217
 C         3.155209         0.559369         0.134401
 C         2.517784        -0.269241        -0.967723
 C         2.576943         0.500298        -2.277424
 C         2.381287         1.972120        -1.903281
 C         2.130682         1.684877        -0.380886
 O         2.171055         2.877368         0.383039
 H        -0.384211         0.506488         1.038447
 H        -0.727598         0.140482        -0.706170
 H        -0.154214        -1.026374         0.477501
 H         4.185830         0.546259         0.491314
 H         2.580544        -1.398420        -1.008317
 H         3.369525         0.283439        -3.044609
 H         1.686625         0.212648        -2.802900
 H         3.331965         2.380742        -1.916089
 H         1.752191         2.683910        -2.444564
 H         1.593691         3.031526         1.169408
