19
Iteration:  2805
 C        -0.049900         0.336853         0.101434
 C         1.469463         0.301078        -0.085591
 O         2.333246         0.105807         1.175982
 C         3.237329         0.507657         0.137002
 C         2.534493        -0.327074        -0.944921
 C         2.519667         0.401200        -2.359892
 C         2.377530         1.838422        -1.862593
 C         2.260570         1.630050        -0.355035
 O         1.775231         2.791139         0.435579
 H        -0.228336         1.368161         0.621082
 H        -0.534081         0.269970        -0.902163
 H        -0.301754        -0.493453         0.663902
 H         4.280970         0.947796         0.314764
 H         2.729915        -1.443526        -1.070882
 H         3.547805         0.424708        -2.960862
 H         1.765584        -0.044386        -3.007801
 H         3.227491         2.343760        -2.206893
 H         1.462665         2.348260        -2.325384
 H         2.004137         2.802998         1.396154
