19
Iteration:  1751charge 0 multiplicity 1
 C        -0.022016         0.336880         0.101711
 C         1.448806         0.323442        -0.126276
 O         2.257347         0.134159         1.177735
 C         3.306129         0.541554         0.197966
 C         2.620944        -0.319567        -0.940855
 C         2.523889         0.441490        -2.431710
 C         2.312922         1.845314        -1.845732
 C         2.242383         1.565110        -0.359522
 O         1.812665         2.777256         0.432934
 H        -0.147282         1.067716         0.920049
 H        -0.635132         0.740526        -0.788471
 H        -0.498686        -0.562085         0.435278
 H         4.449102         0.231817         0.501798
 H         2.785064        -1.426063        -0.981859
 H         3.403182         0.200586        -3.131823
 H         1.690728        -0.028347        -2.861092
 H         3.051595         2.528319        -2.267044
 H         1.365702         2.326432        -2.236696
 H         2.100876         2.667116         1.360885
