19
Iteration:  1420
 C        -0.019523         0.222740         0.139275
 C         1.426813         0.311456        -0.026108
 O         2.259048         0.141598         1.170831
 C         3.200195         0.597877         0.091963
 C         2.559225        -0.348570        -0.880344
 C         2.499693         0.404196        -2.340765
 C         2.290083         1.911571        -1.865865
 C         2.183966         1.642571        -0.364052
 O         2.030871         2.770194         0.307910
 H        -0.511571         0.928112         0.829781
 H        -0.401895         0.338629        -0.801183
 H        -0.327260        -0.807874         0.400445
 H         4.313077         0.828671         0.475937
 H         2.669532        -1.450713        -0.917462
 H         3.522664         0.221072        -2.542114
 H         1.820361         0.150499        -3.110687
 H         3.175074         2.514652        -2.041105
 H         1.450445         2.452629        -2.348846
 H         1.850733         2.473571         1.211451
