19
Iteration:   819charge 0 multiplicity 1
 C        -0.004915         0.278456         0.053269
 C         1.459308         0.364300        -0.026280
 O         2.207794         0.064941         1.160774
 C         3.223274         0.545578         0.095556
 C         2.524170        -0.362664        -0.970621
 C         2.612672         0.355150        -2.325917
 C         2.209010         1.880365        -1.861729
 C         2.347527         1.646561        -0.395977
 O         1.899784         2.864010         0.498593
 H        -0.547384         0.955575         0.696058
 H        -0.500524         0.446422        -1.029160
 H        -0.347355        -0.759587         0.224604
 H         4.278142         0.663438         0.488258
 H         2.752606        -1.517081        -0.948128
 H         3.572373         0.438848        -2.812357
 H         1.870977        -0.014502        -3.021257
 H         2.925508         2.688365        -2.194192
 H         1.082383         2.070297        -2.059065
 H         2.621028         2.811395         1.158355
