19
Iteration:  1821
 C        -0.005811        -0.102613        -0.032234
 C         1.383779         0.375531        -0.046463
 O         2.175972         0.199093         1.132869
 C         3.218596         0.531090         0.147365
 C         2.419323        -0.264353        -0.921299
 C         2.442746         0.457037        -2.252435
 C         2.280851         1.921781        -1.837972
 C         2.284627         1.752889        -0.353108
 O         2.199235         2.826441         0.393124
 H        -0.636757         0.534509         0.592935
 H        -0.481094        -0.100446        -0.977538
 H        -0.178116        -1.142495         0.352529
 H         4.278339         0.503633         0.574831
 H         2.535563        -1.341310        -0.777837
 H         3.403544         0.287310        -2.691958
 H         1.683327         0.178759        -3.071921
 H         3.134527         2.669874        -2.069299
 H         1.389773         2.456388        -2.254524
 H         2.464588         2.637403         1.327727
