19
Iteration:  3140charge 0 multiplicity 1
 C        -0.018415         0.263395         0.134397
 C         1.468165         0.266875        -0.105582
 O         2.326787         0.086872         1.127796
 C         3.273013         0.578993         0.103456
 C         2.523112        -0.361012        -0.908704
 C         2.549862         0.393501        -2.281705
 C         2.431863         1.819665        -1.922110
 C         2.212299         1.733307        -0.406956
 O         1.747806         2.869330         0.456792
 H        -0.244891         1.049811         0.909697
 H        -0.713153         0.481333        -0.708584
 H        -0.419663        -0.628734         0.556648
 H         4.330990         0.664564         0.351386
 H         2.698190        -1.472974        -0.852923
 H         3.379848         0.221947        -2.975660
 H         1.676897         0.053241        -2.928378
 H         3.314322         2.479436        -2.165619
 H         1.607016         2.266762        -2.351944
 H         1.781348         2.390374         1.325280
