19
Iteration:  4955
 C        -0.077270         0.143717        -0.020809
 C         1.396890         0.366264        -0.100471
 O         2.342627         0.170915         1.150787
 C         3.260640         0.423152         0.107563
 C         2.509061        -0.344373        -0.931923
 C         2.538328         0.416699        -2.255666
 C         2.301452         1.917223        -1.820004
 C         2.226091         1.712333        -0.320962
 O         1.971120         2.852966         0.426782
 H        -0.486323         0.906281         0.608622
 H        -0.494728         0.406639        -1.060298
 H        -0.441781        -0.738835         0.448439
 H         4.221258         0.589349         0.403574
 H         2.611502        -1.456387        -1.024083
 H         3.492553         0.302665        -2.756679
 H         1.859354        -0.115449        -2.915819
 H         2.961950         2.657478        -2.060347
 H         1.293885         2.290246        -2.176750
 H         1.989628         2.300993         1.269235
