19
Iteration:  3234
 C        -0.036371        -0.051432        -0.095224
 C         1.379672         0.336126         0.010584
 O         2.211489         0.246002         1.200352
 C         3.205332         0.574530         0.092132
 C         2.460828        -0.344973        -0.880447
 C         2.490062         0.376179        -2.216436
 C         2.223559         1.913426        -1.881707
 C         2.305881         1.673511        -0.413294
 O         2.159890         2.946663         0.440100
 H        -0.705187         0.442448         0.533348
 H        -0.307602         0.083440        -1.128497
 H         0.060838        -1.172540         0.257590
 H         4.266856         0.554966         0.393004
 H         2.637985        -1.438826        -0.728136
 H         3.267397         0.345489        -2.981756
 H         1.746132         0.036539        -2.907213
 H         2.990538         2.588226        -2.226199
 H         1.175662         2.266678        -2.282277
 H         2.464026         2.635949         1.309779
