19
Iteration:  4813
 C        -0.085893         0.020741        -0.077188
 C         1.352512         0.322972        -0.160369
 O         2.223305         0.109903         1.255252
 C         3.238964         0.604008         0.156777
 C         2.595184        -0.306016        -0.905062
 C         2.445006         0.382546        -2.231062
 C         2.273739         1.963635        -1.883199
 C         2.280402         1.700047        -0.340836
 O         2.153157         2.866792         0.398132
 H        -0.669181         0.753637         0.384933
 H        -0.715309        -0.042399        -0.971820
 H        -0.332719        -0.825164         0.513178
 H         4.232191         0.668728         0.498429
 H         2.752203        -1.387840        -0.877273
 H         3.206340         0.453182        -3.007555
 H         1.494848         0.001925        -2.605838
 H         3.113234         2.511645        -2.196458
 H         1.272643         2.420031        -2.356745
 H         2.316249         2.707659         1.327336
