19
Iteration:  1971
 C        -0.083181         0.053792        -0.009637
 C         1.388483         0.393180        -0.025817
 O         2.291899         0.143449         1.193281
 C         3.240641         0.547749         0.157026
 C         2.361430        -0.297280        -1.017419
 C         2.520932         0.456420        -2.251069
 C         2.272794         1.948162        -1.809773
 C         2.285696         1.630937        -0.333079
 O         2.116269         2.809456         0.350864
 H        -0.604532         0.715774         0.700491
 H        -0.380622         0.288516        -1.152332
 H        -0.226215        -1.119499         0.136633
 H         4.396590         0.508357         0.307132
 H         2.523956        -1.347100        -0.836914
 H         3.599329         0.217247        -2.664077
 H         1.843106         0.282670        -3.064500
 H         2.995572         2.690435        -2.028739
 H         1.215164         2.226476        -2.069145
 H         2.152826         2.639627         1.312263
