19
Iteration:   589charge 0 multiplicity 1
 C        -0.083504        -0.068964         0.072778
 C         1.377307         0.483672        -0.075314
 O         2.223463         0.067147         1.149847
 C         3.174608         0.643194         0.104738
 C         2.450769        -0.276418        -0.881297
 C         2.428041         0.390791        -2.322001
 C         2.502936         1.900689        -1.927504
 C         2.282177         1.710585        -0.362128
 O         2.064528         2.894018         0.439394
 H        -0.725937         0.348604         0.845210
 H        -0.653508        -0.018682        -0.915800
 H         0.066179        -1.085092         0.293214
 H         4.255992         0.699287         0.331851
 H         2.595627        -1.363119        -0.568110
 H         3.289055         0.103233        -3.017627
 H         1.400271         0.143550        -2.742984
 H         3.541794         2.343423        -2.071703
 H         1.702796         2.503588        -2.410915
 H         2.216251         2.693749         1.384888
