19
Iteration:  2866charge 0 multiplicity 1
 C        -0.030655         0.059379         0.045368
 C         1.357968         0.410073        -0.108828
 O         2.236512         0.157399         1.151094
 C         3.153380         0.575677         0.193340
 C         2.557425        -0.267560        -0.922037
 C         2.489920         0.379398        -2.379751
 C         2.350839         1.822956        -1.851739
 C         2.241868         1.731068        -0.355295
 O         2.081266         2.871236         0.435402
 H        -0.529819         0.475763         0.890946
 H        -0.664126         0.266323        -0.819601
 H        -0.057910        -1.052891         0.368009
 H         4.209045         0.613185         0.305933
 H         2.840283        -1.309672        -0.721651
 H         3.378989         0.093740        -2.879419
 H         1.647478        -0.185042        -2.855673
 H         3.129847         2.593492        -2.268485
 H         1.446389         2.206786        -2.289535
 H         1.953614         2.460489         1.300612
