19
Iteration:  4175charge 0 multiplicity 1
 C        -0.098295         0.166354        -0.062903
 C         1.364619         0.344105         0.090921
 O         2.322845         0.191427         1.215067
 C         3.229861         0.550250         0.030896
 C         2.531614        -0.334373        -0.996973
 C         2.533698         0.385377        -2.344583
 C         2.285212         1.936187        -1.835185
 C         2.255000         1.655414        -0.342726
 O         2.007329         2.789423         0.489726
 H        -0.700762         0.982049         0.520698
 H        -0.283823         0.060860        -1.108909
 H        -0.390492        -0.726729         0.331490
 H         4.312108         0.523594         0.231795
 H         2.791869        -1.428608        -0.809790
 H         3.388537         0.232309        -3.055266
 H         1.663209         0.019716        -2.932630
 H         3.139815         2.610082        -2.141974
 H         1.369233         2.376976        -2.299682
 H         2.094179         2.361893         1.390126
