19
Iteration:  3191
 C        -0.068792         0.182916         0.172056
 C         1.433655         0.235568        -0.034252
 O         2.283479         0.155939         1.123492
 C         3.180549         0.556099         0.087437
 C         2.527968        -0.329588        -0.960466
 C         2.684618         0.408287        -2.310009
 C         2.287729         1.942699        -1.860032
 C         2.149836         1.706419        -0.375272
 O         2.011404         2.824714         0.369734
 H        -0.481627         1.062551         0.611748
 H        -0.660293        -0.009685        -0.731306
 H        -0.553758        -0.575999         0.929669
 H         4.235183         0.488162         0.383819
 H         2.648479        -1.444753        -0.985006
 H         3.673968         0.089554        -2.665148
 H         2.050033        -0.175919        -3.009948
 H         3.002439         2.703733        -2.220256
 H         1.176652         2.226426        -2.259569
 H         1.734595         2.662101         1.285055
