19
Iteration:  4017charge 0 multiplicity 1
 C        -0.069073         0.260442        -0.053276
 C         1.474476         0.357060        -0.058371
 O         2.309945         0.081283         1.201929
 C         3.273540         0.488646         0.099921
 C         2.610745        -0.372910        -0.917840
 C         2.520286         0.501713        -2.310802
 C         2.199168         1.911286        -1.829726
 C         2.247276         1.662396        -0.324894
 O         1.968664         2.772138         0.443958
 H        -0.467650         1.019561         0.554156
 H        -0.424558         0.426974        -1.073073
 H        -0.553791        -0.634030         0.404071
 H         4.336782         0.492275         0.384077
 H         2.609815        -1.433313        -0.948649
 H         3.313428         0.495571        -3.032238
 H         1.694039        -0.036268        -2.863976
 H         3.069213         2.643929        -2.090563
 H         1.310940         2.353399        -2.258242
 H         1.470618         2.451813         1.204069
