19
Iteration:  4027charge 0 multiplicity 1
 C        -0.103617         0.316938        -0.026808
 C         1.452223         0.257725        -0.016185
 O         2.263949         0.125980         1.156651
 C         3.336101         0.536625         0.089728
 C         2.626416        -0.306957        -0.962742
 C         2.537854         0.407685        -2.344897
 C         2.242793         1.891976        -1.767286
 C         2.230553         1.642594        -0.346681
 O         1.963396         2.753920         0.467201
 H        -0.391678         1.159600         0.527145
 H        -0.445267         0.635500        -1.008709
 H        -0.646807        -0.727631         0.233597
 H         4.417390         0.515790         0.150212
 H         2.887098        -1.339887        -0.915530
 H         3.491573         0.341679        -2.868261
 H         1.633416         0.071156        -2.935009
 H         2.865424         2.717550        -2.305266
 H         1.181801         2.305724        -1.657662
 H         1.394283         2.419480         1.169167
