19
Iteration:  3874
 C        -0.050910         0.417419        -0.080961
 C         1.458147         0.255567        -0.138463
 O         2.353863         0.078362         1.208268
 C         3.263551         0.532463         0.151224
 C         2.636482        -0.356014        -0.951858
 C         2.545311         0.410184        -2.310522
 C         2.165350         1.915244        -1.884455
 C         2.195152         1.578589        -0.303552
 O         1.893342         2.786889         0.504487
 H        -0.216271         0.862595         0.859533
 H        -0.460870         0.999394        -0.901227
 H        -0.541200        -0.661299         0.062797
 H         4.315154         0.673428         0.385299
 H         2.905156        -1.395802        -1.099783
 H         3.478883         0.425496        -2.917490
 H         1.677432        -0.098018        -2.924292
 H         2.907765         2.824019        -2.023222
 H         1.107863         2.075282        -2.148712
 H         2.199794         2.544561         1.398104
