19
Iteration:  4493charge 0 multiplicity 1
 C        -0.037564         0.038769        -0.181967
 C         1.359875         0.376289        -0.054914
 O         2.306332         0.191679         1.211468
 C         3.230256         0.614946         0.109240
 C         2.503681        -0.290380        -0.905427
 C         2.421528         0.332207        -2.269607
 C         2.316929         1.809974        -1.837731
 C         2.224283         1.675343        -0.311170
 O         2.104996         2.925875         0.475514
 H        -0.694491         0.449888         0.684957
 H        -0.528170         0.237734        -1.102407
 H        -0.165353        -1.106382         0.020411
 H         4.269397         0.856893         0.249251
 H         2.638517        -1.358224        -0.812009
 H         3.280216         0.197087        -3.027164
 H         1.478258         0.079112        -2.810317
 H         3.281243         2.317373        -2.072788
 H         1.381544         2.186638        -2.261273
 H         2.140194         2.723815         1.432957
