19
Iteration:  3620
 C        -0.060870        -0.112085         0.097369
 C         1.377676         0.343495        -0.035058
 O         2.164571         0.108207         1.129069
 C         3.201822         0.580087         0.120496
 C         2.514317        -0.302741        -0.948512
 C         2.498430         0.444972        -2.274936
 C         2.414476         1.983625        -1.917415
 C         2.175196         1.714522        -0.371744
 O         2.149219         2.910452         0.402322
 H        -0.578212         0.574326         0.870043
 H        -0.623768         0.076135        -0.841700
 H        -0.211566        -1.070288         0.467717
 H         4.217028         0.651833         0.411823
 H         2.428400        -1.399233        -0.903904
 H         3.467902         0.387637        -2.851406
 H         1.648301        -0.041802        -2.761180
 H         3.426129         2.391065        -2.043609
 H         1.710775         2.674116        -2.377447
 H         1.928522         2.781176         1.349949
