19
Iteration:  1511
 C        -0.052131         0.034773         0.085729
 C         1.414356         0.335754        -0.069822
 O         2.204167         0.122109         1.116384
 C         3.213749         0.572505         0.152229
 C         2.450851        -0.288796        -0.949090
 C         2.521993         0.411169        -2.258959
 C         2.289167         1.822750        -1.857295
 C         2.297231         1.767728        -0.363256
 O         2.091402         2.922597         0.375027
 H        -0.367170         0.814741         0.756729
 H        -0.577357         0.051567        -0.926797
 H        -0.228016        -0.877851         0.579854
 H         4.319100         0.526090         0.272797
 H         2.577841        -1.326931        -0.732298
 H         3.579719         0.332887        -2.608244
 H         1.859337         0.000333        -2.946309
 H         3.076858         2.431097        -2.255663
 H         1.304849         2.107867        -2.256254
 H         1.988724         2.503953         1.244897
