19
Iteration:  3370
 C        -0.035239         0.177450         0.073989
 C         1.414199         0.444104        -0.128647
 O         2.223432         0.113853         1.172766
 C         3.260796         0.566876         0.132747
 C         2.484647        -0.272691        -0.899537
 C         2.633311         0.392371        -2.292040
 C         2.219976         1.827092        -1.878098
 C         2.267845         1.704279        -0.345693
 O         2.015522         2.769676         0.387811
 H        -0.596046         1.053659         0.516610
 H        -0.674933        -0.034667        -0.803524
 H        -0.086721        -0.693635         0.633118
 H         4.261830         0.395259         0.482005
 H         2.574957        -1.315291        -0.658252
 H         3.599099         0.399095        -2.743485
 H         1.966087        -0.013990        -3.071874
 H         2.805215         2.678413        -2.432979
 H         1.242756         1.999138        -2.287443
 H         2.025735         2.466399         1.311930
