19
Iteration:  4643
 C        -0.084834         0.059468        -0.086787
 C         1.439981         0.302433        -0.060719
 O         2.211124         0.227072         1.173866
 C         3.216283         0.673395         0.189294
 C         2.541655        -0.285218        -0.980409
 C         2.414825         0.358643        -2.369359
 C         2.312645         1.776101        -1.807985
 C         2.277416         1.731400        -0.352599
 O         2.135248         2.846302         0.494296
 H        -0.706219         0.574480         0.706594
 H        -0.565818         0.139223        -1.080000
 H        -0.214516        -0.970853         0.109023
 H         4.237099         0.837538         0.561199
 H         2.693285        -1.388494        -0.906534
 H         3.194238         0.065409        -3.001017
 H         1.436117        -0.031193        -2.699702
 H         3.254877         2.384200        -2.144555
 H         1.574099         2.398009        -2.165992
 H         2.029802         2.572978         1.423771
