19
Iteration:  3306
 C        -0.009541         0.217214         0.161025
 C         1.434857         0.362069        -0.062514
 O         2.282044         0.164610         1.190398
 C         3.217733         0.518786         0.131627
 C         2.496668        -0.379500        -0.965203
 C         2.571878         0.406710        -2.362845
 C         2.376976         1.834226        -1.865341
 C         2.207736         1.693128        -0.346965
 O         1.857277         2.820879         0.345513
 H        -0.317199         0.863188         1.067815
 H        -0.442751         0.638661        -0.764048
 H        -0.232284        -0.803663         0.397071
 H         4.289502         0.528388         0.431091
 H         2.673294        -1.433734        -0.923744
 H         3.497220         0.219106        -2.967387
 H         1.835291         0.122310        -3.120981
 H         3.337917         2.462495        -2.034462
 H         1.596651         2.364346        -2.358762
 H         1.856842         2.581354         1.288574
