19
Iteration:  2773charge 0 multiplicity 1
 C        -0.068954         0.163341         0.051704
 C         1.397096         0.359674        -0.087299
 O         2.255566         0.124453         1.168617
 C         3.233888         0.529542         0.118801
 C         2.552294        -0.289887        -0.902813
 C         2.595703         0.391118        -2.278142
 C         2.259529         1.894205        -1.900751
 C         2.188509         1.641032        -0.356431
 O         2.089474         2.818914         0.418440
 H        -0.661347         0.996082         0.594981
 H        -0.538509         0.012903        -0.950750
 H        -0.188383        -0.691043         0.651787
 H         4.223131         0.996179         0.330233
 H         2.571779        -1.423907        -0.888767
 H         3.545224         0.433105        -2.922516
 H         1.748840         0.061602        -2.905013
 H         2.875515         2.656494        -2.202822
 H         1.223432         2.233582        -2.220995
 H         1.676653         2.502416         1.249987
