19
Iteration:  3537
 C        -0.075175         0.320772         0.022253
 C         1.433274         0.270125        -0.080954
 O         2.312287         0.131353         1.175617
 C         3.243939         0.553571         0.199928
 C         2.562482        -0.366903        -0.959506
 C         2.573573         0.472027        -2.294519
 C         2.208447         1.824205        -1.850068
 C         2.215160         1.606753        -0.399608
 O         1.983443         2.833144         0.409163
 H        -0.427707         1.142200         0.618639
 H        -0.602252         0.283901        -0.892891
 H        -0.326909        -0.763304         0.424816
 H         4.380321         0.571942         0.543375
 H         2.913972        -1.437647        -0.945496
 H         3.481901         0.458727        -2.835078
 H         1.992868        -0.069751        -3.034206
 H         2.958008         2.644033        -2.196300
 H         1.215831         2.245856        -2.081308
 H         1.629700         2.467041         1.260596
