19
Iteration:   593
 C        -0.087867        -0.049355         0.104154
 C         1.346231         0.489863        -0.105301
 O         2.227700         0.121449         1.150578
 C         3.173547         0.605195         0.094711
 C         2.483821        -0.308190        -0.927817
 C         2.432673         0.409019        -2.294717
 C         2.489725         1.900157        -1.938668
 C         2.306352         1.686603        -0.323159
 O         2.042035         2.891439         0.437646
 H        -0.759749         0.320450         0.862030
 H        -0.546899        -0.008947        -0.898950
 H         0.045610        -1.159976         0.250007
 H         4.237814         0.600302         0.284216
 H         2.653840        -1.512370        -0.607645
 H         3.304139         0.274976        -2.833607
 H         1.404805         0.165582        -2.824183
 H         3.487238         2.244222        -2.023565
 H         1.751513         2.498600        -2.434606
 H         2.255227         2.723535         1.371308
