19
Iteration:  4520charge 0 multiplicity 1
 C        -0.040627         0.079659        -0.034237
 C         1.372754         0.302024         0.009564
 O         2.288717         0.222870         1.219075
 C         3.247431         0.570698         0.129508
 C         2.468209        -0.288581        -0.902491
 C         2.539891         0.398711        -2.262202
 C         2.291150         1.939766        -1.908876
 C         2.218446         1.658774        -0.424350
 O         2.052307         2.775722         0.426844
 H        -0.534971         0.750109         0.630725
 H        -0.348767         0.383457        -1.103083
 H        -0.466876        -0.916158         0.119616
 H         4.342832         0.723937         0.366212
 H         2.469807        -1.417105        -0.846813
 H         3.464544         0.336813        -2.856991
 H         1.785664         0.019885        -2.969036
 H         3.191853         2.495346        -2.122049
 H         1.336695         2.337595        -2.339571
 H         2.023918         2.520276         1.377424
