19
Iteration:  2362
 C        -0.013949         0.001536         0.063466
 C         1.448204         0.425899        -0.122935
 O         2.177958         0.138545         1.213430
 C         3.151191         0.543198         0.167029
 C         2.558955        -0.295881        -1.008315
 C         2.316953         0.401690        -2.303077
 C         2.517738         1.911350        -1.900082
 C         2.337105         1.741297        -0.357666
 O         2.013416         2.868092         0.453688
 H        -0.391388         0.597691         0.880309
 H        -0.517554         0.032205        -0.951049
 H        -0.012306        -1.110854         0.408855
 H         4.206135         0.608864         0.424469
 H         2.635441        -1.457219        -0.947145
 H         3.059278         0.104774        -3.054832
 H         1.295310         0.057362        -2.650971
 H         3.548131         2.056356        -2.242109
 H         1.858019         2.698489        -2.293568
 H         1.350156         2.708035         1.162180
