19
Iteration:  2446
 C        -0.031264         0.282024         0.070208
 C         1.471216         0.370822        -0.101264
 O         2.162251         0.049093         1.195319
 C         3.308981         0.486665         0.162046
 C         2.545287        -0.335800        -0.945910
 C         2.707610         0.441292        -2.337315
 C         2.100361         1.817617        -1.938452
 C         2.238860         1.654716        -0.338843
 O         2.050729         2.878955         0.470371
 H        -0.373715         1.194074         0.760317
 H        -0.673549         0.491408        -0.805492
 H        -0.297233        -0.598176         0.597350
 H         4.385203         0.437875         0.416936
 H         2.683368        -1.476941        -1.055981
 H         3.712189         0.340854        -2.725892
 H         1.967885         0.015692        -3.187433
 H         2.627010         2.779111        -2.420580
 H         1.008659         1.779624        -2.314866
 H         1.352293         2.719688         1.112544
