19
Iteration:  1698charge 0 multiplicity 1
 C        -0.169263         0.094716         0.150691
 C         1.330891         0.388202         0.010124
 O         2.345382         0.153519         1.175589
 C         3.177973         0.558944         0.066260
 C         2.499300        -0.364425        -1.031740
 C         2.625723         0.439833        -2.365120
 C         2.352591         1.878060        -1.811071
 C         2.176124         1.646958        -0.368736
 O         2.060627         2.868749         0.392421
 H        -0.654380         0.763516         0.779843
 H        -0.648044         0.196652        -0.876318
 H        -0.487804        -0.833196         0.618682
 H         4.298462         0.675468         0.480171
 H         2.694001        -1.484111        -1.116433
 H         3.722197         0.250082        -2.662150
 H         1.948912         0.036600        -3.101798
 H         3.291693         2.491945        -2.013601
 H         1.507324         2.420345        -2.416951
 H         1.799096         2.564607         1.283411
