19
Iteration:  3800charge 0 multiplicity 1
 C        -0.158702        -0.091866         0.128584
 C         1.383706         0.351331        -0.012481
 O         2.151142         0.083571         1.142307
 C         3.186517         0.638290         0.068861
 C         2.473508        -0.252664        -1.015940
 C         2.553462         0.444059        -2.337672
 C         2.466377         2.018614        -1.806571
 C         2.215026         1.716644        -0.323936
 O         2.127695         2.843282         0.384783
 H        -0.758927         0.585894         0.710755
 H        -0.612514        -0.346681        -0.873471
 H        -0.088242        -1.072505         0.673871
 H         4.241174         0.720898         0.456490
 H         2.703849        -1.296623        -1.080205
 H         3.464737         0.133094        -2.827704
 H         1.648233         0.311893        -3.018739
 H         3.417718         2.522180        -2.105812
 H         1.596337         2.406324        -2.174694
 H         2.369689         2.461823         1.262893
