19
Iteration:  1995
 C        -0.090768        -0.038339         0.074727
 C         1.358380         0.310780        -0.049040
 O         2.167738         0.075416         1.186089
 C         3.163824         0.562266         0.073302
 C         2.525673        -0.277267        -0.952643
 C         2.477835         0.482845        -2.341878
 C         2.359844         1.880530        -1.865010
 C         2.210910         1.733499        -0.335354
 O         2.233726         2.945656         0.447492
 H        -0.628326         0.614847         0.811764
 H        -0.426170        -0.004336        -0.970803
 H        -0.036198        -1.157030         0.352506
 H         4.322580         0.673208         0.195216
 H         2.603987        -1.346579        -0.858754
 H         3.397517         0.247259        -2.909560
 H         1.622635         0.231438        -2.991193
 H         3.289710         2.338592        -2.031995
 H         1.557181         2.449423        -2.356572
 H         1.693420         2.910766         1.245170
