19
Iteration:  3187
 C        -0.075826         0.164957         0.206383
 C         1.413429         0.249004        -0.083717
 O         2.314054         0.154595         1.134442
 C         3.200413         0.536627         0.107804
 C         2.513158        -0.328791        -0.974436
 C         2.671893         0.408889        -2.277467
 C         2.291826         1.952555        -1.842705
 C         2.154333         1.681155        -0.394559
 O         1.965784         2.818424         0.346794
 H        -0.341230         1.240239         0.511564
 H        -0.648077         0.160807        -0.715565
 H        -0.558607        -0.480038         0.907207
 H         4.280728         0.492312         0.380654
 H         2.706840        -1.367084        -0.966567
 H         3.662602         0.069005        -2.632963
 H         2.086721         0.006741        -3.089373
 H         2.993755         2.688338        -2.149836
 H         1.350029         2.164403        -2.282673
 H         1.845540         2.625484         1.306670
