19
Iteration:  4572
 C        -0.077366         0.291271         0.199377
 C         1.340827         0.321793        -0.100226
 O         2.334248        -0.003938         1.211806
 C         3.190346         0.599635         0.137109
 C         2.503884        -0.315312        -1.031800
 C         2.680085         0.413965        -2.268846
 C         2.372590         1.882306        -1.898542
 C         2.139023         1.681244        -0.425824
 O         1.923258         2.798035         0.380551
 H        -0.267056         1.264086         0.675249
 H        -0.696241         0.132987        -0.762329
 H        -0.237460        -0.595847         0.962667
 H         4.282402         0.534594         0.342840
 H         2.714259        -1.370927        -0.969637
 H         3.769322         0.441902        -2.699736
 H         2.091672         0.128959        -3.184296
 H         3.065135         2.618774        -2.155781
 H         1.412696         2.247946        -2.490704
 H         1.834435         2.529430         1.336741
