19
Iteration:  4276charge 0 multiplicity 1
 C        -0.070125         0.057159         0.113858
 C         1.358491         0.357788        -0.062957
 O         2.252714         0.143262         1.145995
 C         3.168550         0.579711         0.131677
 C         2.514785        -0.288651        -0.990540
 C         2.528599         0.374303        -2.376284
 C         2.429358         1.834812        -1.939005
 C         2.257914         1.738028        -0.360982
 O         2.015876         2.902145         0.497461
 H        -0.540012         0.422856         1.065874
 H        -0.552474         0.207372        -0.849961
 H        -0.119957        -1.082544         0.393164
 H         4.152251         0.697543         0.572583
 H         2.544890        -1.367546        -0.961231
 H         3.514575         0.189342        -2.948087
 H         1.628018         0.161341        -2.965818
 H         3.309684         2.401443        -2.087311
 H         1.445359         2.480665        -2.205207
 H         1.955915         2.474694         1.367662
