19
Iteration:  2981
 C        -0.104768         0.342510         0.133211
 C         1.461737         0.259618        -0.076412
 O         2.384295         0.164051         1.181497
 C         3.185373         0.604698         0.026528
 C         2.545055        -0.335380        -0.908694
 C         2.569368         0.373899        -2.240347
 C         2.459180         1.882209        -1.853019
 C         2.258335         1.665931        -0.480605
 O         1.746540         2.694610         0.432736
 H        -0.305270         1.272617         0.688795
 H        -0.424213         0.381045        -0.902262
 H        -0.460759        -0.542192         0.588005
 H         4.303710         0.671414         0.097743
 H         2.656873        -1.405181        -0.875484
 H         3.319300         0.110908        -2.998058
 H         1.655563         0.185260        -2.729123
 H         3.324389         2.499673        -1.963358
 H         1.602692         2.474212        -2.351698
 H         1.627764         2.229478         1.279353
