19
Iteration:  2950
 C        -0.019365         0.173104         0.051821
 C         1.495490         0.295271        -0.081315
 O         2.226318         0.163458         1.205340
 C         3.190938         0.578072         0.187725
 C         2.544351        -0.337999        -0.997464
 C         2.506728         0.371000        -2.302582
 C         2.292253         1.833824        -1.883996
 C         2.257754         1.750592        -0.325458
 O         1.960582         2.863776         0.406232
 H        -0.331422         0.985844         0.656547
 H        -0.418524         0.213137        -0.959395
 H        -0.228474        -0.897468         0.391995
 H         4.265884         0.626136         0.455663
 H         2.571986        -1.381252        -1.147349
 H         3.405735         0.284213        -2.937394
 H         1.700520        -0.138946        -2.943388
 H         3.181129         2.322493        -2.191967
 H         1.405956         2.333894        -2.300833
 H         2.121997         2.397922         1.279495
