19
Iteration:  2682
 C        -0.068968         0.133184         0.049080
 C         1.447425         0.336079        -0.029936
 O         2.273195         0.104345         1.170765
 C         3.220776         0.544957         0.137352
 C         2.527620        -0.282878        -0.915192
 C         2.438548         0.436352        -2.294824
 C         2.398069         1.944130        -1.815488
 C         2.216949         1.678192        -0.415101
 O         1.993434         2.840962         0.326023
 H        -0.454006         0.594976         0.910074
 H        -0.562357         0.445848        -0.850124
 H        -0.095836        -0.962657         0.280414
 H         4.273804         0.443157         0.485314
 H         2.708465        -1.347807        -0.904109
 H         3.232563        -0.001204        -2.977676
 H         1.503914         0.043924        -2.641713
 H         3.409005         2.238717        -1.812660
 H         1.819334         2.690551        -2.300841
 H         1.619727         2.397707         1.136402
