19
Iteration:  4589charge 0 multiplicity 1
 C        -0.107717         0.240163         0.165117
 C         1.406461         0.315422        -0.104601
 O         2.392456         0.124784         1.220887
 C         3.168485         0.498738         0.070445
 C         2.429096        -0.360835        -0.971220
 C         2.691015         0.474237        -2.409123
 C         2.366182         1.886909        -1.797745
 C         2.195621         1.629188        -0.334228
 O         1.897343         2.808397         0.340694
 H        -0.538234         1.191526         0.548128
 H        -0.697162         0.072466        -0.679232
 H        -0.549825        -0.490363         0.776683
 H         4.227827         0.714586         0.248964
 H         2.567142        -1.454567        -0.926791
 H         3.665936         0.220648        -2.673567
 H         2.116848         0.025869        -3.205413
 H         3.308855         2.585130        -1.854011
 H         1.520304         2.388529        -2.098649
 H         1.837840         2.747272         1.319291
