19
Iteration:  2272charge 0 multiplicity 1
 C        -0.052258         0.254528         0.023128
 C         1.442424         0.351365        -0.177426
 O         2.220989         0.187949         1.152108
 C         3.256460         0.575307         0.165955
 C         2.588178        -0.354987        -0.951203
 C         2.617158         0.422175        -2.279772
 C         2.084291         1.882825        -1.830125
 C         2.224865         1.639571        -0.376891
 O         2.088122         2.696931         0.432696
 H        -0.164024         1.210474         0.750353
 H        -0.882853         0.512090        -0.728726
 H        -0.298172        -0.672856         0.512291
 H         4.285833         0.484001         0.536403
 H         2.645295        -1.587405        -0.762220
 H         3.600838         0.644535        -2.486392
 H         2.111909        -0.000873        -3.271910
 H         2.825445         2.655540        -2.216705
 H         1.092699         2.020800        -2.063748
 H         1.793284         2.465262         1.353396
