19
Iteration:  4846
 C        -0.082213        -0.054399        -0.051169
 C         1.377186         0.450709        -0.014808
 O         2.276277         0.218493         1.215855
 C         3.230354         0.493788         0.039704
 C         2.410473        -0.333794        -0.953079
 C         2.531422         0.377566        -2.291755
 C         2.304190         1.891197        -1.818900
 C         2.201216         1.712241        -0.310562
 O         2.146222         2.923346         0.449288
 H        -0.714454         0.466411         0.621880
 H        -0.267957         0.166957        -1.124471
 H         0.025307        -1.110140         0.053560
 H         4.246629         0.432858         0.323684
 H         2.379561        -1.446312        -0.933232
 H         3.468090         0.334843        -2.856126
 H         1.822440        -0.088480        -2.966297
 H         3.164791         2.405065        -2.079561
 H         1.388330         2.415392        -2.415075
 H         1.943743         2.858289         1.416123
