19
Iteration:  4139charge 0 multiplicity 1
 C        -0.062753        -0.075446         0.001100
 C         1.407675         0.337793        -0.094379
 O         2.226446         0.098879         1.169328
 C         3.171647         0.631277         0.142270
 C         2.429140        -0.272122        -0.988679
 C         2.438609         0.369086        -2.352618
 C         2.399620         1.937636        -1.826999
 C         2.328245         1.737831        -0.288705
 O         2.095492         2.919461         0.429127
 H        -0.548954         0.651915         0.726424
 H        -0.772806        -0.071435        -0.893832
 H        -0.039049        -1.033906         0.580808
 H         4.251969         0.451912         0.393515
 H         2.761055        -1.324793        -0.893643
 H         3.267249         0.136110        -2.999116
 H         1.468825         0.229819        -2.931083
 H         3.457874         2.418025        -2.128671
 H         1.639631         2.655765        -2.055731
 H         1.903990         2.747628         1.389048
