19
Iteration:  4144
 C        -0.017881        -0.037871        -0.044413
 C         1.397092         0.316597        -0.084051
 O         2.253321         0.132623         1.175127
 C         3.210835         0.575115         0.159776
 C         2.399050        -0.261743        -0.974194
 C         2.422253         0.404849        -2.317363
 C         2.394213         1.941841        -1.834147
 C         2.280026         1.719108        -0.280573
 O         2.072706         2.890989         0.403218
 H        -0.459288         0.710474         0.604056
 H        -0.713408        -0.135135        -0.825035
 H         0.017215        -0.991362         0.491027
 H         4.270015         0.533263         0.372397
 H         2.518238        -1.356985        -0.801666
 H         3.348557         0.310310        -2.945945
 H         1.540146         0.264675        -2.889712
 H         3.330104         2.296814        -2.047509
 H         1.602850         2.673916        -2.178002
 H         2.187358         2.568619         1.333534
