19
Iteration:  2905
 C        -0.041326        -0.131221        -0.047127
 C         1.341706         0.337668         0.017647
 O         2.269973         0.216466         1.277816
 C         3.048690         0.525287         0.126023
 C         2.439866        -0.290457        -0.929701
 C         2.564684         0.452813        -2.305909
 C         2.240529         1.875205        -1.876410
 C         2.197535         1.681656        -0.323546
 O         2.263817         2.947509         0.322813
 H        -0.600747         0.508883         0.648441
 H        -0.339243         0.175350        -1.060059
 H        -0.169695        -1.197868        -0.028553
 H         4.139287         0.511699         0.385405
 H         2.715127        -1.321615        -0.802781
 H         3.618277         0.406034        -2.693499
 H         1.934229         0.211292        -3.172938
 H         2.974506         2.569661        -2.102701
 H         1.224301         2.275532        -2.153121
 H         2.350020         2.973549         1.310947
