19
Iteration:   826
 C        -0.011103         0.321973         0.026889
 C         1.455402         0.370445        -0.019622
 O         2.217980         0.092684         1.190805
 C         3.213651         0.525771         0.086258
 C         2.589064        -0.346552        -0.959612
 C         2.604147         0.444340        -2.285271
 C         2.190166         1.831648        -1.892511
 C         2.280892         1.665609        -0.345525
 O         1.926087         2.745443         0.433415
 H        -0.433042         1.071048         0.714106
 H        -0.310827         0.576062        -0.979727
 H        -0.346043        -0.665977         0.261814
 H         4.295300         0.547650         0.369050
 H         2.718445        -1.367509        -1.093340
 H         3.636123         0.335750        -2.811341
 H         1.822047         0.040220        -2.909660
 H         2.758564         2.682988        -2.225447
 H         1.140112         2.034738        -2.041892
 H         2.429701         2.712857         1.273346
