19
Iteration:  1530charge 0 multiplicity 1
 C        -0.041860         0.215094         0.166521
 C         1.372851         0.460042         0.006152
 O         2.268623         0.070967         1.218586
 C         3.174307         0.495701         0.074906
 C         2.496556        -0.336663        -0.989667
 C         2.705791         0.391655        -2.353871
 C         2.276311         1.918206        -1.940712
 C         2.175105         1.692842        -0.376776
 O         1.986296         2.812481         0.367468
 H        -0.600092         0.843308         0.900093
 H        -0.429228         0.142838        -0.776067
 H         0.030370        -0.778678         0.582473
 H         4.303786         0.610287         0.497580
 H         2.336073        -1.424285        -0.880735
 H         3.737334         0.119898        -2.632001
 H         2.089130        -0.103684        -3.138275
 H         3.035722         2.648892        -2.143985
 H         1.254161         2.189312        -2.282652
 H         2.137733         2.718825         1.322900
