19
Iteration:  4640charge 0 multiplicity 1
 C        -0.069487         0.086762        -0.079147
 C         1.459567         0.300369        -0.090333
 O         2.218169         0.222931         1.176090
 C         3.211414         0.682172         0.216967
 C         2.537493        -0.269232        -0.981376
 C         2.400958         0.351941        -2.381794
 C         2.341057         1.782353        -1.810890
 C         2.281720         1.718462        -0.321764
 O         2.122776         2.846896         0.495215
 H        -0.691019         0.548484         0.651512
 H        -0.750010         0.033877        -1.025447
 H        -0.222672        -0.960501         0.187738
 H         4.250749         0.866049         0.560463
 H         2.617968        -1.399816        -0.909024
 H         3.199732        -0.017607        -3.054119
 H         1.465546         0.041923        -2.887245
 H         3.203951         2.298066        -2.149848
 H         1.431439         2.300281        -2.247414
 H         1.980150         2.490645         1.385273
