19
Iteration:   925
 C        -0.135553        -0.145054         0.108026
 C         1.349652         0.301947        -0.044451
 O         2.210324         0.100097         1.159634
 C         3.177224         0.593970         0.166055
 C         2.471581        -0.260222        -0.962913
 C         2.442776         0.414404        -2.310112
 C         2.460262         1.990674        -1.854156
 C         2.185951         1.735696        -0.359786
 O         2.222492         2.925676         0.337226
 H        -0.671029         0.479585         0.787587
 H        -0.554709        -0.092200        -0.936327
 H        -0.150761        -1.132583         0.483889
 H         4.265655         0.778888         0.549680
 H         2.595627        -1.344035        -0.842009
 H         3.346524         0.406460        -3.076193
 H         1.558032         0.200324        -2.892112
 H         3.505458         2.299695        -1.922643
 H         1.867995         2.737554        -2.334949
 H         1.777004         2.822157         1.188019
