19
Iteration:  2477
 C        -0.103903         0.299055         0.105530
 C         1.415733         0.361059        -0.039176
 O         2.290560         0.082716         1.153149
 C         3.292722         0.585432         0.061678
 C         2.508384        -0.344612        -0.969748
 C         2.610887         0.407618        -2.232971
 C         2.292648         1.904966        -1.834630
 C         2.165000         1.597766        -0.357760
 O         1.978985         2.760930         0.376920
 H        -0.566922         1.019901         0.860123
 H        -0.600665         0.471796        -0.843610
 H        -0.418354        -0.654586         0.404820
 H         4.389902         0.768781         0.220646
 H         2.825048        -1.394215        -1.101970
 H         3.664919         0.220909        -2.566211
 H         1.955393         0.124971        -3.048618
 H         3.252290         2.482540        -1.976275
 H         1.487403         2.323919        -2.511719
 H         1.406767         2.539438         1.156640
