19
Iteration:   835charge 0 multiplicity 1
 C        -0.035043         0.358578        -0.024085
 C         1.461252         0.336746        -0.048933
 O         2.276305         0.137131         1.203271
 C         3.276378         0.500874         0.145240
 C         2.587053        -0.284514        -0.970394
 C         2.586350         0.465868        -2.276937
 C         2.170267         1.846940        -1.838712
 C         2.167168         1.616172        -0.341920
 O         1.973887         2.688786         0.393829
 H        -0.253313         1.154054         0.743599
 H        -0.412676         0.649655        -0.925390
 H        -0.491762        -0.582798         0.331525
 H         4.316744         0.476163         0.368888
 H         2.691826        -1.318945        -0.896358
 H         3.586438         0.394827        -2.793595
 H         1.887755        -0.057097        -3.030595
 H         2.731849         2.616673        -2.328586
 H         1.215651         2.024800        -2.245523
 H         2.049732         2.477455         1.362427
