19
Iteration:  3403charge 0 multiplicity 1
 C        -0.039845         0.024312        -0.158894
 C         1.454762         0.281989        -0.031355
 O         2.294464         0.190012         1.345947
 C         3.213776         0.660564         0.094915
 C         2.471495        -0.332467        -0.957530
 C         2.417771         0.394157        -2.314706
 C         2.309703         1.863804        -1.837058
 C         2.118253         1.670313        -0.268912
 O         2.167367         2.900681         0.366127
 H        -0.697636         0.782487         0.382674
 H        -0.258001         0.027135        -1.240211
 H        -0.271990        -0.872319         0.292581
 H         4.264618         0.665525         0.296063
 H         2.585968        -1.333961        -0.619884
 H         3.134838         0.110039        -3.047806
 H         1.457772         0.161212        -2.833711
 H         3.364739         2.359883        -2.012188
 H         1.507505         2.265481        -2.390667
 H         2.062655         2.778996         1.338205
