19
Iteration:  3576
 C        -0.026984         0.020613        -0.151010
 C         1.457195         0.417037        -0.040062
 O         2.300372         0.195652         1.178305
 C         3.255253         0.534503         0.100689
 C         2.475663        -0.340814        -0.869583
 C         2.331439         0.401209        -2.244063
 C         2.365235         1.874932        -1.878375
 C         2.226562         1.750910        -0.360672
 O         2.014009         2.838131         0.509651
 H        -0.780020         0.773788         0.327094
 H        -0.251584        -0.164366        -1.247391
 H        -0.083733        -0.844995         0.408761
 H         4.233953         0.587814         0.475005
 H         2.673582        -1.432079        -0.773716
 H         3.309954         0.196949        -2.783282
 H         1.397705         0.325771        -2.867663
 H         3.305229         2.381843        -2.174078
 H         1.654588         2.424921        -2.515054
 H         2.381574         2.457608         1.335191
