19
Iteration:  4581
 C        -0.106274         0.287582         0.169782
 C         1.350903         0.260686        -0.113365
 O         2.400307         0.063636         1.236464
 C         3.100853         0.553031         0.128069
 C         2.461106        -0.336767        -0.999321
 C         2.726402         0.421850        -2.387601
 C         2.338277         1.912772        -1.842709
 C         2.222017         1.627276        -0.324021
 O         1.904238         2.831671         0.337644
 H        -0.361950         1.269353         0.647986
 H        -0.617055         0.121481        -0.773127
 H        -0.198794        -0.580597         0.956454
 H         4.177077         0.744358         0.106752
 H         2.493251        -1.384511        -0.893532
 H         3.843430         0.389618        -2.663154
 H         1.991147         0.152746        -3.171255
 H         3.259250         2.554421        -2.012406
 H         1.441576         2.443295        -2.324316
 H         1.863138         2.384404         1.237904
