19
Iteration:   676
 C         0.032054         0.361101        -0.003583
 C         1.467235         0.350107         0.011360
 O         2.267372         0.041286         1.214399
 C         3.213780         0.554695         0.138894
 C         2.540452        -0.314314        -1.037531
 C         2.564783         0.432115        -2.267685
 C         2.169118         1.812166        -1.881554
 C         2.265265         1.643158        -0.368576
 O         1.896156         2.749559         0.429401
 H        -0.302850         1.255141         0.567135
 H        -0.403540         0.518936        -1.090871
 H        -0.302998        -0.552284         0.429974
 H         4.278165         0.527150         0.531870
 H         2.682889        -1.420053        -0.999077
 H         3.640995         0.471510        -2.626696
 H         2.085706        -0.080268        -3.152414
 H         2.820695         2.703126        -2.206305
 H         1.111000         2.188387        -2.067465
 H         2.619962         2.799362         1.089689
