19
Iteration:  1850
 C        -0.103030        -0.067969         0.127015
 C         1.324369         0.338866        -0.068764
 O         2.232102         0.116960         1.142604
 C         3.153695         0.539388         0.132918
 C         2.545908        -0.271842        -1.000019
 C         2.530287         0.458865        -2.331878
 C         2.373495         1.899705        -1.847536
 C         2.209281         1.775616        -0.337365
 O         2.185780         2.891619         0.418270
 H        -0.644303         0.748266         0.577355
 H        -0.812460        -0.112253        -0.817353
 H        -0.470791        -1.066177         0.463653
 H         4.271078         0.772640         0.456134
 H         2.673076        -1.388053        -0.900038
 H         3.396289         0.084918        -3.025573
 H         1.652222         0.295140        -2.911372
 H         3.272101         2.514315        -1.910707
 H         1.556289         2.324086        -2.470691
 H         1.904914         2.764779         1.341166
