19
Iteration:  4135
 C        -0.098956        -0.079674         0.048002
 C         1.401931         0.353693        -0.095796
 O         2.205353         0.076112         1.158679
 C         3.162282         0.640109         0.132351
 C         2.473363        -0.285531        -0.994661
 C         2.429288         0.376003        -2.370578
 C         2.438911         1.929388        -1.817181
 C         2.337998         1.758883        -0.312822
 O         2.111593         2.937151         0.448346
 H        -0.588806         0.550840         0.756918
 H        -0.652764        -0.060341        -0.910647
 H        -0.115354        -1.136287         0.610002
 H         4.187583         0.494410         0.405951
 H         2.845721        -1.286101        -0.955322
 H         3.254276         0.017876        -3.040236
 H         1.499821         0.150260        -2.918897
 H         3.320643         2.444231        -2.116380
 H         1.583904         2.624737        -2.091191
 H         1.745125         2.822491         1.343340
