19
Iteration:  1112
 C         0.007175        -0.162092        -0.017751
 C         1.404058         0.355633        -0.009891
 O         2.204360         0.266993         1.207376
 C         3.206259         0.557992         0.125941
 C         2.378820        -0.338976        -0.904280
 C         2.403731         0.443841        -2.255206
 C         2.431231         1.980384        -1.884784
 C         2.246450         1.701685        -0.421241
 O         2.149823         2.902676         0.374027
 H        -0.725334         0.213379         0.681206
 H        -0.517513        -0.090241        -1.058777
 H         0.066722        -1.241208         0.257956
 H         4.315066         0.405362         0.480233
 H         2.252385        -1.453289        -0.780631
 H         3.133396        -0.003038        -2.940409
 H         1.485877         0.475462        -2.751919
 H         3.386257         2.463868        -1.954993
 H         1.700886         2.634918        -2.249823
 H         2.190830         2.574095         1.289372
