19
Iteration:  3286charge 0 multiplicity 1
 C        -0.036218         0.094096         0.009602
 C         1.441851         0.362686        -0.029449
 O         2.235465         0.076717         1.175768
 C         3.277976         0.604194         0.080353
 C         2.560442        -0.256827        -0.908757
 C         2.388700         0.276489        -2.255415
 C         2.441622         1.892325        -1.888488
 C         2.250456         1.731369        -0.358934
 O         1.962060         2.932779         0.396049
 H        -0.442913         0.502199         0.945482
 H        -0.525172         0.463093        -0.869820
 H        -0.251146        -1.004693         0.163534
 H         4.338807         0.585723         0.436659
 H         2.498162        -1.310660        -0.792826
 H         3.295363         0.113013        -2.904652
 H         1.482576        -0.106789        -2.751250
 H         3.299094         2.373954        -2.281303
 H         1.542692         2.298504        -2.264974
 H         1.593267         2.630993         1.251410
