19
Iteration:  4767charge 0 multiplicity 1
 C        -0.026103         0.270203         0.055514
 C         1.403623         0.384564        -0.067868
 O         2.378539         0.100678         1.181000
 C         3.255269         0.519988         0.107214
 C         2.401355        -0.330581        -0.925082
 C         2.571710         0.421363        -2.296794
 C         2.393741         1.904371        -1.861719
 C         2.215521         1.693672        -0.449724
 O         1.853688         2.757335         0.445168
 H        -0.641267         1.068779         0.503069
 H        -0.552218         0.160263        -0.899866
 H        -0.133717        -0.606415         0.850223
 H         4.312961         0.312218         0.317734
 H         2.606922        -1.372641        -0.834735
 H         3.650497         0.176391        -2.548688
 H         1.909620         0.046190        -3.118973
 H         3.347043         2.505542        -2.122129
 H         1.431220         2.379655        -2.343058
 H         1.656194         2.382286         1.307082
