19
Iteration:  4854charge 0 multiplicity 1
 C        -0.122830        -0.028981        -0.065057
 C         1.406297         0.440112        -0.038667
 O         2.308269         0.208508         1.228230
 C         3.204004         0.436169         0.038679
 C         2.445261        -0.338937        -0.916772
 C         2.541477         0.407197        -2.276269
 C         2.325704         1.902693        -1.863028
 C         2.212140         1.740995        -0.308201
 O         2.114071         2.924807         0.429489
 H        -0.651528         0.415614         0.810945
 H        -0.660431         0.136206        -1.073704
 H        -0.074014        -1.216693         0.091938
 H         4.274693         0.592273         0.073340
 H         2.297703        -1.381217        -0.888096
 H         3.567508         0.184001        -2.594195
 H         1.720928        -0.029840        -2.899856
 H         3.215127         2.564464        -2.172969
 H         1.413768         2.479289        -2.188494
 H         1.885448         2.564622         1.341941
