19
Iteration:  2293charge 0 multiplicity 1
 C        -0.062619         0.238447         0.097539
 C         1.376325         0.368273         0.023966
 O         2.230889         0.107192         1.168760
 C         3.223334         0.522898         0.060710
 C         2.506733        -0.297876        -0.985937
 C         2.731616         0.400490        -2.332418
 C         2.189872         1.842471        -1.912141
 C         2.258091         1.687301        -0.382779
 O         2.018487         2.806610         0.504393
 H        -0.490137         1.106410         0.767373
 H        -0.352183         0.443891        -0.976726
 H        -0.398587        -0.745300         0.357727
 H         4.259734         0.781715         0.304064
 H         2.499996        -1.398732        -1.237039
 H         3.722560         0.382445        -2.672754
 H         2.034216        -0.184878        -3.072123
 H         2.714597         2.739970        -2.351316
 H         1.211624         1.788834        -2.257348
 H         2.015065         2.462719         1.414810
