19
Iteration:  2238
 C        -0.084407         0.153237        -0.026037
 C         1.404999         0.415249         0.061310
 O         2.316183         0.069775         1.209623
 C         3.248344         0.613375         0.064893
 C         2.498155        -0.275499        -0.939019
 C         2.502715         0.358094        -2.401383
 C         2.330911         1.855989        -1.861895
 C         2.208806         1.698194        -0.313482
 O         1.986729         2.806553         0.454428
 H        -0.570109         0.950294         0.706491
 H        -0.342451         0.304756        -1.086824
 H        -0.359261        -0.802281         0.400555
 H         4.302080         0.458828         0.340002
 H         2.613594        -1.423678        -0.880078
 H         3.468614         0.409487        -2.812498
 H         1.805928         0.028340        -3.281189
 H         3.223268         2.488220        -2.137345
 H         1.571148         2.311506        -2.412510
 H         2.010651         2.571585         1.400493
