19
Iteration:  4766charge 0 multiplicity 1
 C        -0.025328         0.271689         0.061038
 C         1.395353         0.386061        -0.070018
 O         2.383792         0.105950         1.172934
 C         3.255796         0.509949         0.102135
 C         2.407600        -0.328642        -0.923883
 C         2.575139         0.418176        -2.292544
 C         2.398827         1.905055        -1.864815
 C         2.209450         1.690220        -0.445885
 O         1.848354         2.760702         0.446281
 H        -0.651924         1.093227         0.519268
 H        -0.565452         0.160359        -0.892076
 H        -0.171487        -0.624650         0.851928
 H         4.324097         0.301760         0.350035
 H         2.591688        -1.385347        -0.853482
 H         3.655660         0.215077        -2.545004
 H         1.904120         0.026373        -3.112144
 H         3.368925         2.536903        -2.152226
 H         1.452839         2.359198        -2.314830
 H         1.659561         2.364173         1.316069
