19
Iteration:  1013charge 0 multiplicity 1
 C        -0.025838         0.421670         0.066763
 C         1.447127         0.321904        -0.045843
 O         2.310118         0.048093         1.151353
 C         3.229148         0.610408         0.030115
 C         2.577704        -0.334153        -0.966347
 C         2.598256         0.348123        -2.257554
 C         2.191139         1.804300        -1.933988
 C         2.266289         1.733811        -0.353131
 O         1.882544         2.749250         0.533861
 H        -0.571791         1.135371         0.626000
 H        -0.484380         0.535584        -1.021211
 H        -0.505091        -0.472202         0.351983
 H         4.350059         0.597875         0.448641
 H         2.913961        -1.427765        -0.955512
 H         3.698627         0.501774        -2.734267
 H         1.999363        -0.175469        -2.994495
 H         2.948781         2.442168        -2.335025
 H         1.268768         2.006127        -2.375945
 H         1.778232         2.365590         1.419718
