19
Iteration:  1896charge 0 multiplicity 1
 C        -0.016936         0.289871         0.103407
 C         1.433249         0.315276        -0.036863
 O         2.336588         0.170869         1.148119
 C         3.270612         0.440582         0.130109
 C         2.474072        -0.320438        -1.026719
 C         2.578998         0.453777        -2.330779
 C         2.400673         1.883698        -1.846084
 C         2.162378         1.649409        -0.371167
 O         1.849076         2.776596         0.431159
 H        -0.392666         1.058246         0.744197
 H        -0.522036         0.430489        -0.857538
 H        -0.375617        -0.751512         0.377099
 H         4.382549         0.239047         0.485634
 H         2.428904        -1.403066        -1.014472
 H         3.430035         0.410467        -3.005228
 H         1.754997         0.020098        -2.855597
 H         3.138852         2.628227        -1.923604
 H         1.416253         2.301086        -2.160578
 H         2.017269         2.503412         1.345746
