19
Iteration:  1416charge 0 multiplicity 1
 C        -0.028770         0.251825         0.172983
 C         1.464360         0.283922        -0.040452
 O         2.233612         0.137128         1.170100
 C         3.212298         0.620042         0.053839
 C         2.548417        -0.360510        -0.877011
 C         2.541534         0.411409        -2.327920
 C         2.294136         1.897316        -1.842436
 C         2.158900         1.596280        -0.397686
 O         2.015183         2.782196         0.311754
 H        -0.338604         0.997594         0.883728
 H        -0.458550         0.398021        -0.887366
 H        -0.362290        -0.760007         0.469582
 H         4.140798         0.809838         0.437221
 H         2.670977        -1.415041        -0.849291
 H         3.607505         0.329797        -2.686546
 H         1.827408         0.181958        -3.218119
 H         3.196543         2.596682        -1.967999
 H         1.372896         2.322893        -2.208565
 H         1.956413         2.563164         1.286523
