19
Iteration:  1187charge 0 multiplicity 1
 C        -0.088902         0.355371         0.136702
 C         1.409449         0.347708        -0.012805
 O         2.331958         0.163811         1.198806
 C         3.307889         0.497722         0.079062
 C         2.546628        -0.366155        -1.006312
 C         2.653991         0.422759        -2.373834
 C         2.220809         1.878212        -1.822585
 C         2.242811         1.560315        -0.354444
 O         1.884196         2.763468         0.371830
 H        -0.383998         1.221363         0.675862
 H        -0.430762         0.579122        -0.964053
 H        -0.569981        -0.531982         0.506540
 H         4.343397         0.683352         0.540647
 H         2.601891        -1.483065        -0.822732
 H         3.613296         0.253987        -2.694275
 H         1.936597         0.013937        -3.147543
 H         2.747351         2.845296        -2.123911
 H         1.268183         1.906449        -2.279525
 H         1.792196         2.462008         1.297260
