19
Iteration:  1417
 C        -0.026823         0.247057         0.164422
 C         1.455912         0.290682        -0.037585
 O         2.239590         0.137991         1.169536
 C         3.207481         0.614468         0.061882
 C         2.553532        -0.358331        -0.873707
 C         2.530169         0.408855        -2.332790
 C         2.291094         1.902739        -1.848796
 C         2.165046         1.607560        -0.387201
 O         2.020077         2.778109         0.309180
 H        -0.383743         0.968170         0.861536
 H        -0.428268         0.373954        -0.845838
 H        -0.354576        -0.779298         0.447564
 H         4.188560         0.819929         0.456014
 H         2.665506        -1.412896        -0.872164
 H         3.575923         0.300115        -2.631898
 H         1.817991         0.181820        -3.203199
 H         3.203146         2.581682        -1.985897
 H         1.401559         2.354181        -2.242901
 H         1.926757         2.536526         1.267255
