19
Iteration:  2483charge 0 multiplicity 1
 C        -0.116746         0.277216         0.099743
 C         1.412162         0.325156        -0.066242
 O         2.298822         0.084656         1.163915
 C         3.320515         0.541255         0.020637
 C         2.492858        -0.342107        -0.915320
 C         2.602465         0.437773        -2.231353
 C         2.354979         1.898306        -1.869908
 C         2.136991         1.682073        -0.350837
 O         1.944908         2.773400         0.379618
 H        -0.387769         0.951539         0.864199
 H        -0.583819         0.425762        -0.903340
 H        -0.390796        -0.832667         0.365144
 H         4.369291         0.756782         0.187170
 H         2.574375        -1.439979        -0.792677
 H         3.574013         0.244555        -2.716738
 H         1.789573         0.110150        -2.954905
 H         3.260902         2.474856        -1.897642
 H         1.653821         2.365554        -2.512079
 H         1.686745         2.518244         1.291566
