19
Iteration:  2274
 C        -0.052104         0.269423         0.036626
 C         1.458969         0.358786        -0.159059
 O         2.216330         0.180420         1.155886
 C         3.238761         0.578439         0.155445
 C         2.585163        -0.353321        -0.960129
 C         2.621757         0.435376        -2.293725
 C         2.093260         1.855506        -1.855087
 C         2.220969         1.648027        -0.361512
 O         2.091138         2.699432         0.437209
 H        -0.269486         1.140330         0.711326
 H        -0.876733         0.520806        -0.724159
 H        -0.279604        -0.703140         0.504404
 H         4.252747         0.406349         0.504059
 H         2.729194        -1.557355        -0.662512
 H         3.670874         0.640865        -2.501360
 H         2.143015         0.071346        -3.254850
 H         2.817951         2.619523        -2.231239
 H         1.020736         2.027972        -2.028357
 H         1.760280         2.389053         1.306192
