19
Iteration:  1124
 C        -0.046748        -0.153124        -0.021092
 C         1.348915         0.385134        -0.011775
 O         2.266622         0.290968         1.235873
 C         3.166899         0.483101         0.185346
 C         2.434129        -0.312143        -0.905919
 C         2.338273         0.486211        -2.258643
 C         2.437544         1.965586        -1.843880
 C         2.266931         1.719655        -0.378930
 O         2.170956         2.817895         0.306207
 H        -0.692368         0.427947         0.634497
 H        -0.338274         0.018194        -1.106521
 H        -0.050706        -1.281962         0.120157
 H         4.250874         0.796780         0.398761
 H         2.680245        -1.332111        -1.163957
 H         3.242874         0.380361        -2.959263
 H         1.511784         0.039169        -2.711666
 H         3.350298         2.391709        -2.145968
 H         1.621385         2.512601        -2.270554
 H         1.958994         2.563394         1.224216
