19
Iteration:  2398charge 0 multiplicity 1
 C        -0.102331         0.074267        -0.021641
 C         1.379916         0.291916         0.009697
 O         2.318239         0.216836         1.269275
 C         3.144772         0.503067         0.059579
 C         2.502192        -0.308691        -0.982590
 C         2.479822         0.385766        -2.310185
 C         2.395491         1.939134        -1.842782
 C         2.183988         1.702578        -0.345778
 O         2.054165         2.849966         0.424706
 H        -0.730478         0.710633         0.606758
 H        -0.483154         0.218465        -1.043231
 H        -0.281421        -1.011443         0.258588
 H         4.195693         0.681156         0.368151
 H         2.583755        -1.350397        -1.033369
 H         3.528217         0.293238        -2.794755
 H         1.802473         0.000790        -2.977571
 H         3.330180         2.355854        -2.155309
 H         1.589784         2.499252        -2.483349
 H         2.582876         2.623906         1.231587
