19
Iteration:   603charge 0 multiplicity 1
 C        -0.068169        -0.024835         0.108172
 C         1.341565         0.392267        -0.077399
 O         2.240565         0.250754         1.160501
 C         3.196035         0.470903         0.100809
 C         2.489093        -0.317967        -1.003041
 C         2.470970         0.425063        -2.273419
 C         2.456812         1.889589        -1.839377
 C         2.248109         1.748137        -0.337861
 O         2.019892         2.865531         0.413264
 H        -0.606147         0.493306         0.874018
 H        -0.612571         0.126331        -0.863071
 H        -0.029233        -1.095947         0.317848
 H         4.261592         0.482326         0.342291
 H         2.587522        -1.544970        -1.083929
 H         3.325125         0.218165        -2.852856
 H         1.671999         0.096712        -3.075874
 H         3.435640         2.300973        -2.074083
 H         1.794687         2.563465        -2.366584
 H         2.272154         2.653794         1.338337
