19
Iteration:  1136charge 0 multiplicity 1
 C        -0.104201        -0.058775        -0.045147
 C         1.386114         0.355545        -0.032904
 O         2.236816         0.237958         1.301414
 C         3.205593         0.604373         0.085583
 C         2.576659        -0.262481        -0.975815
 C         2.373355         0.427113        -2.317180
 C         2.347865         1.866253        -1.834895
 C         2.277430         1.656355        -0.342425
 O         2.153537         2.861556         0.369031
 H        -0.758717         0.505840         0.652000
 H        -0.502394         0.099035        -1.041403
 H        -0.202901        -1.163117         0.266225
 H         4.261149         0.557915         0.398436
 H         2.616580        -1.290440        -0.791573
 H         3.268549         0.106999        -2.986083
 H         1.493679         0.171331        -2.859948
 H         3.258431         2.348146        -2.059231
 H         1.536716         2.528510        -2.187573
 H         1.920973         2.633884         1.306807
