19
Iteration:  3751
 C        -0.057899        -0.039660        -0.030692
 C         1.409692         0.337389         0.005880
 O         2.213637         0.151822         1.193856
 C         3.178762         0.566352         0.072031
 C         2.491088        -0.272309        -0.887147
 C         2.429159         0.559072        -2.346983
 C         2.398798         1.898815        -1.808383
 C         2.338727         1.665952        -0.304685
 O         2.091343         2.837729         0.378646
 H        -0.773379         0.678963         0.497948
 H        -0.260937        -0.040120        -1.097084
 H        -0.198297        -1.073722         0.274841
 H         4.229582         0.641896         0.238964
 H         2.378595        -1.378120        -0.775961
 H         3.278886         0.273170        -3.047657
 H         1.500754         0.270902        -2.828013
 H         3.294728         2.485474        -2.003562
 H         1.444787         2.474207        -2.181484
 H         1.856890         2.394872         1.234358
