19
Iteration:  1647
 C        -0.076353        -0.068518        -0.067117
 C         1.364023         0.385883        -0.016082
 O         2.216011         0.193844         1.222234
 C         3.186367         0.573878         0.095879
 C         2.525277        -0.332277        -0.936489
 C         2.416078         0.384720        -2.343861
 C         2.282007         1.899532        -1.847279
 C         2.310071         1.746607        -0.315756
 O         2.250889         2.952012         0.440772
 H        -0.945283         0.391920         0.548756
 H        -0.450277        -0.030894        -1.127568
 H        -0.169458        -1.208439         0.223382
 H         4.165859         0.652779         0.416963
 H         2.612206        -1.421637        -0.628849
 H         3.286393         0.212412        -2.987621
 H         1.451620        -0.021950        -2.848878
 H         3.166612         2.435016        -2.241319
 H         1.297446         2.115645        -2.218868
 H         1.921389         2.620436         1.297511
