19
Iteration:  1446
 C        -0.061942         0.006997        -0.039703
 C         1.412432         0.418257        -0.066898
 O         2.314753         0.216029         1.219333
 C         3.269757         0.536111         0.042682
 C         2.474701        -0.326957        -0.859970
 C         2.391494         0.316583        -2.358771
 C         2.401023         1.812009        -1.879765
 C         2.294408         1.774394        -0.292063
 O         2.019622         2.947184         0.468814
 H        -0.711714         0.575198         0.661169
 H        -0.587522         0.055876        -1.121293
 H        -0.123224        -1.046578         0.213519
 H         4.268878         0.469820         0.322166
 H         2.320311        -1.395925        -0.780049
 H         3.225914        -0.120928        -2.970388
 H         1.412829         0.274656        -2.813826
 H         3.133602         2.517357        -2.280494
 H         1.434315         2.222218        -2.266324
 H         1.988549         2.542865         1.353347
