19
Iteration:  3193charge 0 multiplicity 1
 C        -0.069963         0.184618         0.158676
 C         1.435733         0.237778        -0.008800
 O         2.264893         0.153146         1.124205
 C         3.177127         0.567539         0.076019
 C         2.534554        -0.330048        -0.955579
 C         2.686583         0.405847        -2.322857
 C         2.274852         1.927752        -1.877007
 C         2.156135         1.711653        -0.366178
 O         2.032908         2.832276         0.382060
 H        -0.545356         1.030951         0.673794
 H        -0.660351        -0.101185        -0.778909
 H        -0.466862        -0.604357         0.885347
 H         4.214924         0.515790         0.373122
 H         2.630027        -1.474875        -0.978828
 H         3.711478         0.166466        -2.681953
 H         1.989479        -0.228163        -2.993429
 H         3.024279         2.728103        -2.246575
 H         1.205672         2.236064        -2.223703
 H         1.682543         2.649058         1.284226
