19
Iteration:  4163charge 0 multiplicity 1
 C        -0.041622         0.067056        -0.003373
 C         1.438279         0.443119         0.043333
 O         2.289871         0.176154         1.204152
 C         3.197700         0.480057         0.052390
 C         2.507916        -0.349920        -0.957647
 C         2.478677         0.444246        -2.269563
 C         2.348798         1.954604        -1.849820
 C         2.161104         1.680219        -0.371673
 O         2.027388         2.771111         0.424878
 H        -0.905141         0.809828         0.256387
 H        -0.108227         0.123897        -1.102937
 H        -0.243130        -0.865352         0.327177
 H         4.286153         0.534948         0.307194
 H         2.681606        -1.467265        -1.135608
 H         3.338086         0.196665        -2.908946
 H         1.534037         0.238744        -2.832682
 H         3.269186         2.675887        -1.940960
 H         1.461368         2.463263        -2.218243
 H         2.404313         2.643196         1.335440
