19
Iteration:  2053
 C        -0.069161         0.151092         0.063826
 C         1.429494         0.339695         0.058399
 O         2.312648         0.192467         1.166652
 C         3.262638         0.476337         0.004067
 C         2.471719        -0.333149        -1.028138
 C         2.504459         0.394464        -2.315604
 C         2.405458         1.971946        -1.816638
 C         2.220285         1.646325        -0.357448
 O         1.945295         2.805179         0.441150
 H        -0.693784         0.898285         0.624235
 H        -0.403920         0.203137        -0.948903
 H        -0.422113        -0.825779         0.347973
 H         4.308809         0.600888         0.247714
 H         2.310640        -1.484391        -0.782173
 H         3.385662         0.180508        -2.853807
 H         1.608632         0.337398        -3.016787
 H         3.379458         2.579212        -1.849280
 H         1.654990         2.597267        -2.248034
 H         1.934156         2.333513         1.322093
