19
Iteration:  4020charge 0 multiplicity 1
 C        -0.084484         0.254393        -0.046353
 C         1.474393         0.338187        -0.048038
 O         2.298039         0.090952         1.193512
 C         3.285934         0.494285         0.090773
 C         2.628413        -0.364390        -0.908478
 C         2.526733         0.489760        -2.324603
 C         2.208510         1.906183        -1.814802
 C         2.238546         1.665237        -0.330504
 O         1.969915         2.768954         0.446083
 H        -0.498869         1.112480         0.564324
 H        -0.450708         0.523184        -1.072031
 H        -0.565302        -0.546457         0.341858
 H         4.401269         0.466561         0.289885
 H         2.656342        -1.470716        -0.957885
 H         3.346754         0.474945        -3.043097
 H         1.701826        -0.034686        -2.859380
 H         2.991012         2.639115        -2.143521
 H         1.275069         2.401287        -2.074165
 H         1.412863         2.408890         1.178815
