19
Iteration:   666charge 0 multiplicity 1
 C         0.036807         0.384864         0.039693
 C         1.493545         0.349305        -0.065982
 O         2.250940         0.016091         1.190322
 C         3.188815         0.534311         0.113123
 C         2.509782        -0.357282        -0.949967
 C         2.652276         0.395438        -2.367460
 C         2.192646         1.847042        -1.874798
 C         2.235623         1.678571        -0.307546
 O         1.896099         2.802615         0.475912
 H        -0.354322         1.170514         0.678566
 H        -0.395644         0.374392        -1.060213
 H        -0.330659        -0.522357         0.446360
 H         4.271166         0.768345         0.280574
 H         2.806059        -1.474520        -0.850786
 H         3.676486         0.366439        -2.804277
 H         1.831339         0.003427        -3.148038
 H         2.744945         2.632591        -2.496409
 H         1.077567         1.908659        -2.127146
 H         2.487892         2.822039         1.251903
