19
Iteration:   496charge 0 multiplicity 1
 C        -0.131077         0.364823         0.093508
 C         1.386301         0.362381        -0.060536
 O         2.263088         0.140007         1.134834
 C         3.283073         0.626723         0.012115
 C         2.570057        -0.281860        -0.956061
 C         2.703828         0.342855        -2.304936
 C         2.230049         1.804691        -1.869513
 C         2.170422         1.642882        -0.328160
 O         1.998196         2.695103         0.492651
 H        -0.457956         1.145863         0.789481
 H        -0.636015         0.517991        -0.898755
 H        -0.429316        -0.643101         0.556394
 H         4.354405         0.850716         0.124041
 H         2.789641        -1.377507        -0.944555
 H         3.672687         0.257820        -2.826470
 H         1.884489        -0.129275        -2.883093
 H         2.855796         2.582734        -2.269544
 H         1.188516         1.988658        -2.230538
 H         1.933103         2.234812         1.376335
