19
Iteration:  4260charge 0 multiplicity 1
 C        -0.101526         0.063313         0.127968
 C         1.419024         0.405195        -0.026792
 O         2.254812         0.046477         1.142747
 C         3.248144         0.615276         0.010071
 C         2.429462        -0.280077        -0.914788
 C         2.598830         0.409044        -2.276016
 C         2.370582         1.949303        -1.863798
 C         2.168139         1.677819        -0.363939
 O         2.001487         2.828244         0.405887
 H        -0.420638         0.839716         0.883636
 H        -0.584922         0.500065        -0.808265
 H        -0.198402        -0.939420         0.352031
 H         4.361149         0.532288         0.007520
 H         2.663472        -1.371052        -0.751773
 H         3.605204         0.236764        -2.553476
 H         1.896575        -0.003193        -3.035006
 H         3.373476         2.453743        -2.148569
 H         1.632246         2.280318        -2.477358
 H         1.859577         2.540293         1.309659
