19
Iteration:  1885
 C         0.004101         0.167251         0.083223
 C         1.468977         0.431200        -0.041344
 O         2.303111         0.098616         1.185866
 C         3.190215         0.475095         0.086910
 C         2.407971        -0.304640        -0.981901
 C         2.559135         0.446327        -2.349721
 C         2.386866         1.900596        -1.813415
 C         2.222273         1.677265        -0.332143
 O         1.873933         2.781472         0.395651
 H        -0.268785         0.918239         0.776607
 H        -0.359643         0.385160        -0.923731
 H        -0.188246        -0.788503         0.636390
 H         4.370681         0.515102         0.280412
 H         2.389101        -1.388772        -0.985098
 H         3.539907         0.112649        -2.750207
 H         1.795785         0.405048        -3.104167
 H         3.244290         2.450131        -2.105916
 H         1.582446         2.392149        -2.411701
 H         2.066634         2.540560         1.333538
