19
Iteration:  2565charge 0 multiplicity 1
 C        -0.092784        -0.100270        -0.063729
 C         1.374537         0.373235         0.014931
 O         2.259951         0.110931         1.199445
 C         3.190897         0.595693         0.125514
 C         2.429568        -0.242993        -0.901307
 C         2.455711         0.358261        -2.389510
 C         2.347518         1.872758        -1.824439
 C         2.264055         1.742214        -0.326543
 O         2.206417         2.910875         0.400864
 H        -0.620166         0.755207         0.576928
 H        -0.352456         0.213500        -1.079696
 H        -0.382951        -1.030108         0.314828
 H         4.283573         0.771257         0.329592
 H         2.599070        -1.332504        -0.611307
 H         3.474820         0.149540        -2.779112
 H         1.770859         0.114913        -3.174231
 H         3.223462         2.553852        -1.938360
 H         1.399553         2.500971        -1.972920
 H         1.401617         2.909670         0.981046
