19
Iteration:  2106charge 0 multiplicity 1
 C        -0.042824         0.309859         0.012201
 C         1.429197         0.291259         0.000137
 O         2.246656         0.143684         1.110343
 C         3.231724         0.452228         0.102193
 C         2.639705        -0.322665        -1.001448
 C         2.568531         0.473214        -2.245685
 C         2.125353         1.829513        -1.817356
 C         2.268494         1.674851        -0.350509
 O         1.977555         2.777120         0.424144
 H        -0.292003         1.150977         0.761637
 H        -0.541291         0.482552        -0.882714
 H        -0.428747        -0.678087         0.316732
 H         4.219832         0.396899         0.602687
 H         2.882684        -1.385480        -1.101460
 H         3.527624         0.584989        -2.625103
 H         1.908482         0.124457        -3.081601
 H         2.774232         2.555354        -2.301624
 H         1.125432         2.137824        -1.991527
 H         2.477892         2.536874         1.224590
