19
Iteration:  2636
 C        -0.084514         0.309405         0.112087
 C         1.409069         0.357298        -0.083324
 O         2.297574         0.078139         1.129914
 C         3.285292         0.490976         0.074097
 C         2.552593        -0.325389        -0.941485
 C         2.624526         0.373230        -2.297821
 C         2.313024         1.918837        -1.876969
 C         2.130736         1.657771        -0.358167
 O         1.852704         2.762711         0.449816
 H        -0.141452         1.124514         0.761191
 H        -0.353216         0.676292        -0.866338
 H        -0.505421        -0.600128         0.632446
 H         4.344874         0.640360         0.312818
 H         2.583161        -1.342603        -0.646085
 H         3.643059         0.365119        -2.673677
 H         2.009284        -0.103131        -3.110642
 H         3.211299         2.535729        -2.129681
 H         1.478288         2.246884        -2.487694
 H         2.432167         2.752252         1.258535
