19
Iteration:  1731
 C         0.006857         0.329084         0.184276
 C         1.500736         0.419407        -0.034047
 O         2.278336         0.040951         1.159573
 C         3.208005         0.525304         0.074772
 C         2.505233        -0.339585        -1.021362
 C         2.568246         0.371245        -2.312326
 C         2.360659         1.890594        -1.854163
 C         2.251031         1.676897        -0.394461
 O         1.790065         2.766643         0.405051
 H        -0.244472         1.063831         0.876020
 H        -0.534091         0.602467        -0.763413
 H        -0.267474        -0.703740         0.480221
 H         4.263210         0.685639         0.611405
 H         2.688419        -1.455377        -0.957665
 H         3.600449         0.276669        -2.793008
 H         1.867923         0.025750        -3.072903
 H         3.247894         2.558420        -2.106641
 H         1.486782         2.248969        -2.490885
 H         1.866840         2.438335         1.337459
