19
Iteration:  2497
 C        -0.029927         0.136079         0.068480
 C         1.417059         0.383449        -0.037982
 O         2.324425         0.136972         1.163217
 C         3.165085         0.528405         0.106156
 C         2.479734        -0.332758        -0.941867
 C         2.523385         0.365882        -2.335317
 C         2.492484         1.916640        -1.849368
 C         2.198153         1.680094        -0.406196
 O         1.865475         2.853876         0.449107
 H        -0.426729         0.824510         0.818019
 H        -0.557278         0.532730        -0.785956
 H        -0.438342        -0.820888         0.384125
 H         4.261809         0.388359         0.290932
 H         2.570127        -1.404606        -0.889202
 H         3.433359         0.135987        -2.988454
 H         1.687810         0.133697        -2.905621
 H         3.402009         2.401271        -2.068668
 H         1.644530         2.438364        -2.296019
 H         2.314112         2.528174         1.266435
