19
Iteration:  3599
 C        -0.036450        -0.084927        -0.033289
 C         1.408307         0.326463        -0.070875
 O         2.219739         0.271988         1.275654
 C         3.175936         0.557633         0.143521
 C         2.436835        -0.256433        -0.983987
 C         2.391184         0.434186        -2.357844
 C         2.434789         1.917838        -1.784400
 C         2.297942         1.648884        -0.352548
 O         2.119501         2.849562         0.379556
 H        -0.817440         0.531723         0.574541
 H        -0.308366        -0.159796        -1.106475
 H         0.004186        -1.075657         0.384856
 H         4.203832         0.644356         0.373592
 H         2.691545        -1.338574        -0.923190
 H         3.184637         0.198471        -3.120850
 H         1.305040         0.281571        -2.694862
 H         3.334010         2.575537        -2.084557
 H         1.659483         2.633081        -1.982363
 H         1.901591         2.390703         1.240447
