19
Iteration:  3523
 C        -0.018540         0.276753         0.128589
 C         1.460364         0.337397        -0.053495
 O         2.205837         0.098006         1.184798
 C         3.224864         0.470289         0.092356
 C         2.583371        -0.316327        -0.977243
 C         2.694900         0.429124        -2.273803
 C         2.176518         1.904242        -1.846764
 C         2.274430         1.683292        -0.342327
 O         1.909445         2.753629         0.314245
 H        -0.324171         1.153873         0.850192
 H        -0.449417         0.575402        -0.860214
 H        -0.476368        -0.566267         0.600489
 H         4.291026         0.473114         0.345798
 H         2.623704        -1.425152        -0.993149
 H         3.745358         0.450746        -2.612167
 H         1.972244         0.064725        -3.060806
 H         2.817120         2.796290        -2.265790
 H         1.155256         1.972786        -2.123856
 H         1.934478         2.597100         1.272694
