19
Iteration:  1977charge 0 multiplicity 1
 C        -0.017891        -0.000688        -0.032499
 C         1.385044         0.395286        -0.006037
 O         2.297294         0.135335         1.192651
 C         3.203640         0.555242         0.186912
 C         2.355373        -0.311495        -1.052707
 C         2.517573         0.424423        -2.280863
 C         2.289750         1.970393        -1.823697
 C         2.208516         1.627941        -0.324123
 O         2.184503         2.851860         0.354445
 H        -0.653053         0.554748         0.679193
 H        -0.519490         0.247478        -0.911524
 H        -0.338417        -0.916962         0.313241
 H         4.196395         0.579643         0.491178
 H         2.527748        -1.405697        -0.832036
 H         3.475442         0.369682        -2.710617
 H         1.811316         0.140776        -3.117567
 H         3.120991         2.766766        -1.962490
 H         1.354295         2.440437        -2.106230
 H         1.904925         2.637579         1.266130
