19
Iteration:  2096charge 0 multiplicity 1
 C        -0.009331         0.332967         0.055442
 C         1.430419         0.327322        -0.035271
 O         2.214166         0.051802         1.102075
 C         3.298309         0.559625         0.145704
 C         2.618753        -0.362972        -0.967470
 C         2.587782         0.422077        -2.380613
 C         2.141159         1.837290        -1.850030
 C         2.217807         1.699332        -0.342858
 O         1.982716         2.777235         0.488049
 H        -0.409461         1.138136         0.762634
 H        -0.253072         0.553983        -0.954704
 H        -0.518707        -0.529398         0.423435
 H         4.318898         0.652299         0.534458
 H         2.761300        -1.544046        -0.916874
 H         3.468166         0.450940        -2.922810
 H         1.809074        -0.094534        -3.048803
 H         2.794187         2.678362        -2.230458
 H         1.166645         2.124202        -2.140450
 H         2.179716         2.653521         1.421315
