19
Iteration:  1466
 C         0.042810        -0.051537        -0.094726
 C         1.460597         0.413313        -0.003189
 O         2.256281         0.229061         1.189677
 C         3.163400         0.635481         0.099903
 C         2.402494        -0.278151        -0.875982
 C         2.319382         0.310230        -2.240695
 C         2.343195         1.886788        -1.859797
 C         2.242298         1.698092        -0.357653
 O         2.141254         2.858652         0.398159
 H        -0.709155         0.473776         0.534004
 H        -0.226659         0.002240        -1.186064
 H        -0.007807        -1.096951         0.093741
 H         4.278346         0.702311         0.507826
 H         2.543315        -1.396865        -0.900432
 H         3.226202         0.309978        -2.854467
 H         1.417538         0.020575        -2.688231
 H         3.343575         2.181267        -2.063846
 H         1.595365         2.624859        -2.275201
 H         2.373589         2.556383         1.284851
