19
Iteration:  3607charge 0 multiplicity 1
 C        -0.050678        -0.093202         0.019441
 C         1.381323         0.351370         0.009764
 O         2.169795         0.215121         1.225986
 C         3.175111         0.580431         0.099200
 C         2.507659        -0.322665        -0.944340
 C         2.374048         0.514547        -2.340311
 C         2.457110         1.908928        -1.802541
 C         2.275353         1.709116        -0.356961
 O         2.148269         2.830655         0.356437
 H        -0.713255         0.520767         0.662835
 H        -0.446405        -0.175819        -1.038787
 H         0.013883        -1.086085         0.347167
 H         4.185299         0.629206         0.463440
 H         2.902188        -1.337207        -0.973826
 H         3.204495         0.139883        -3.012322
 H         1.540283         0.497661        -3.013742
 H         3.303772         2.472295        -2.020784
 H         1.570827         2.425833        -2.301714
 H         1.797932         2.547921         1.230522
