19
Iteration:  1908charge 0 multiplicity 1
 C        -0.128068         0.356160         0.097937
 C         1.453767         0.315128        -0.086964
 O         2.277535         0.131425         1.183901
 C         3.309681         0.474996         0.058128
 C         2.640173        -0.393800        -0.955837
 C         2.535266         0.420005        -2.324898
 C         2.273902         1.948915        -1.833230
 C         2.253637         1.660084        -0.352878
 O         1.874420         2.732751         0.435986
 H        -0.445244         1.091699         0.845010
 H        -0.521076         0.640429        -0.846149
 H        -0.573358        -0.601352         0.426599
 H         4.431049         0.571021         0.280123
 H         2.896452        -1.425022        -1.070998
 H         3.475051         0.233659        -2.772484
 H         1.764140         0.118018        -3.024796
 H         3.141113         2.515730        -2.109581
 H         1.432034         2.442385        -2.335751
 H         1.792711         2.346085         1.333195
