19
Iteration:  4072charge 0 multiplicity 1
 C        -0.086833         0.158195         0.086291
 C         1.427047         0.397134        -0.038699
 O         2.287060         0.122050         1.140069
 C         3.283889         0.440300         0.083154
 C         2.450062        -0.317823        -0.966834
 C         2.631114         0.422433        -2.309713
 C         2.291735         1.949044        -1.906394
 C         2.222016         1.763637        -0.339031
 O         1.923912         2.782616         0.478105
 H        -0.577951         0.648972         0.899087
 H        -0.663785         0.605192        -0.767033
 H        -0.282357        -0.981176         0.101239
 H         4.341659         0.271134         0.390916
 H         2.578246        -1.374443        -1.047250
 H         3.644027         0.218555        -2.583409
 H         1.905346        -0.124271        -3.008813
 H         3.124778         2.772904        -2.111687
 H         1.393189         2.188722        -2.502530
 H         2.414835         2.689785         1.304178
