19
Iteration:  4307
 C        -0.034242        -0.024590        -0.020565
 C         1.401428         0.324660        -0.000914
 O         2.156433         0.236704         1.186904
 C         3.216293         0.576243         0.054067
 C         2.549926        -0.274305        -0.922816
 C         2.404767         0.459748        -2.195881
 C         2.372260         1.917230        -1.845245
 C         2.260547         1.632094        -0.427756
 O         2.100534         2.824127         0.387811
 H        -0.534635         0.630255         0.803011
 H        -0.384135         0.186316        -0.980173
 H         0.109123        -1.083627         0.164226
 H         4.183928         0.627449         0.516467
 H         2.643454        -1.356468        -1.079074
 H         3.265879         0.158787        -2.876956
 H         1.472834         0.254680        -2.712791
 H         3.366369         2.343410        -2.055934
 H         1.531126         2.661846        -2.086784
 H         2.066510         2.419001         1.289864
