19
Iteration:  2180
 C         0.004645        -0.016296         0.128330
 C         1.382439         0.362060        -0.114797
 O         2.190729         0.192498         1.183296
 C         3.136603         0.596823         0.262274
 C         2.500335        -0.294862        -1.050219
 C         2.378824         0.491574        -2.353404
 C         2.502066         1.898400        -1.871645
 C         2.263956         1.678611        -0.305194
 O         2.063217         2.782219         0.359321
 H        -0.573613         0.614711         0.891180
 H        -0.583702         0.092447        -0.803857
 H         0.052260        -1.137286         0.367802
 H         4.209122         0.665035         0.619166
 H         2.685241        -1.294260        -1.212665
 H         3.197493         0.260892        -3.142399
 H         1.423072         0.294966        -2.837821
 H         3.447160         2.371328        -2.029051
 H         1.663972         2.565831        -2.300608
 H         2.272558         2.521010         1.290712
