19
Iteration:  3309
 C        -0.018730         0.253668         0.176643
 C         1.417693         0.371601        -0.063884
 O         2.305058         0.164797         1.196197
 C         3.200615         0.525550         0.127078
 C         2.521024        -0.394319        -0.978916
 C         2.565819         0.402424        -2.355799
 C         2.413851         1.864262        -1.851735
 C         2.181764         1.680413        -0.367870
 O         1.858429         2.788499         0.332366
 H        -0.317949         0.805911         1.048097
 H        -0.449058         0.570218        -0.751047
 H        -0.267269        -0.835682         0.441213
 H         4.253995         0.591530         0.517561
 H         2.558811        -1.498782        -0.927585
 H         3.600172         0.379856        -2.881581
 H         1.845355         0.147022        -3.141858
 H         3.258546         2.430571        -2.070363
 H         1.494797         2.267999        -2.342871
 H         1.903545         2.587493         1.291091
