19
Iteration:   635
 C        -0.109349         0.235069         0.140751
 C         1.416926         0.363358        -0.038867
 O         2.270437         0.107084         1.175934
 C         3.171726         0.551945         0.089409
 C         2.526400        -0.321747        -0.947847
 C         2.597542         0.457262        -2.307790
 C         2.313586         1.894867        -1.859717
 C         2.228645         1.673000        -0.403329
 O         2.021425         2.735631         0.404278
 H        -0.598589         0.907962         0.796194
 H        -0.580106         0.313848        -0.885064
 H        -0.240887        -0.786252         0.431545
 H         4.216561         0.798060         0.295400
 H         2.876488        -1.455444        -1.107105
 H         3.621339         0.403416        -2.619691
 H         1.884354        -0.052904        -3.115791
 H         3.202059         2.401687        -2.251071
 H         1.422488         2.342051        -2.312196
 H         1.666749         2.539749         1.284391
