19
Iteration:  2581
 C        -0.039037         0.105166        -0.018306
 C         1.394345         0.441466        -0.018368
 O         2.257814         0.085717         1.171120
 C         3.196404         0.550589         0.142372
 C         2.422761        -0.292761        -0.965165
 C         2.577284         0.389997        -2.255214
 C         2.236829         1.894236        -1.860381
 C         2.228224         1.691897        -0.327941
 O         2.179266         2.859816         0.433619
 H        -0.723549         0.683092         0.563060
 H        -0.332074        -0.086736        -1.063321
 H         0.188569        -0.971827         0.327138
 H         4.253738         0.489367         0.348611
 H         2.429183        -1.372375        -0.940367
 H         3.569741         0.272252        -2.702199
 H         1.801273        -0.081156        -2.956965
 H         2.935883         2.655055        -2.309824
 H         1.270367         2.133022        -2.283801
 H         1.305424         2.931231         0.854347
