19
Iteration:  4880
 C        -0.065494         0.124624         0.138438
 C         1.434699         0.328488        -0.036494
 O         2.196985         0.141652         1.154747
 C         3.180287         0.602516         0.122889
 C         2.528071        -0.299178        -0.993557
 C         2.573161         0.424675        -2.356960
 C         2.379382         1.889839        -1.893373
 C         2.227529         1.667589        -0.309938
 O         1.995998         2.788995         0.388093
 H        -0.469944         0.527228         1.066827
 H        -0.475782         0.661735        -0.752278
 H        -0.349445        -0.882989         0.072230
 H         4.231183         0.764728         0.420221
 H         2.590496        -1.436896        -0.930536
 H         3.550065         0.229844        -2.799377
 H         1.797909        -0.050650        -2.914128
 H         3.241409         2.414568        -2.155078
 H         1.459443         2.580397        -2.229079
 H         2.128176         2.581176         1.350162
