19
Iteration:  1212charge 0 multiplicity 1
 C        -0.007107         0.372229         0.168299
 C         1.416966         0.288616        -0.074731
 O         2.298026         0.112874         1.190998
 C         3.252170         0.555814         0.026157
 C         2.489256        -0.340578        -0.964581
 C         2.666584         0.436124        -2.278580
 C         2.208839         1.877260        -1.903397
 C         2.198428         1.591236        -0.380097
 O         1.895191         2.759320         0.389290
 H        -0.076282         1.248900         0.879874
 H        -0.608186         0.605840        -0.724787
 H        -0.370244        -0.598546         0.726649
 H         4.379488         0.482161         0.274169
 H         2.779096        -1.351696        -0.859009
 H         3.761710         0.473194        -2.335692
 H         2.243098        -0.087160        -3.051416
 H         2.992835         2.523727        -2.163966
 H         1.372740         2.157639        -2.508342
 H         1.612800         2.360676         1.225732
