19
Iteration:  1599charge 0 multiplicity 1
 C        -0.118825         0.193700         0.013380
 C         1.446540         0.337645        -0.062910
 O         2.293994         0.168621         1.173740
 C         3.282724         0.524488         0.130077
 C         2.525810        -0.276556        -0.950604
 C         2.500433         0.277379        -2.303151
 C         2.352158         1.871180        -1.880156
 C         2.323993         1.703186        -0.338710
 O         1.906696         2.854222         0.440561
 H        -0.499765         0.768156         0.787889
 H        -0.731584         0.480371        -0.915933
 H        -0.456918        -0.768477         0.305146
 H         4.409204         0.492132         0.212906
 H         2.653570        -1.344117        -0.900974
 H         3.354179         0.169527        -3.016674
 H         1.592201         0.008006        -2.772091
 H         3.173301         2.512448        -2.199115
 H         1.309822         2.130086        -2.137256
 H         2.119434         2.758890         1.382393
