19
Iteration:  4033
 C        -0.089674         0.351410        -0.013739
 C         1.442921         0.218622        -0.032648
 O         2.255905         0.140044         1.140695
 C         3.319481         0.598773         0.080615
 C         2.584236        -0.267333        -1.026856
 C         2.525286         0.356063        -2.328307
 C         2.250472         1.888522        -1.770991
 C         2.276823         1.608996        -0.308597
 O         1.952342         2.735922         0.482715
 H        -0.365268         1.168680         0.773669
 H        -0.369076         0.619242        -1.055046
 H        -0.576552        -0.601566         0.127198
 H         4.414065         0.636905         0.313767
 H         3.032258        -1.311465        -0.911278
 H         3.565970         0.244266        -2.753948
 H         1.754387         0.107662        -3.020127
 H         2.763899         2.679216        -2.194881
 H         1.147532         2.060075        -1.858637
 H         1.475446         2.457478         1.281647
