19
Iteration:   421
 C        -0.084783        -0.016656         0.009625
 C         1.372518         0.256415        -0.015156
 O         2.273680         0.081176         1.254764
 C         3.166517         0.609010         0.078097
 C         2.479580        -0.253294        -0.948823
 C         2.423492         0.424043        -2.284317
 C         2.469121         1.869860        -1.954522
 C         2.183181         1.723755        -0.276901
 O         2.111968         2.931750         0.371668
 H        -0.473506         0.741323         0.680955
 H        -0.551542         0.245013        -0.935252
 H        -0.340321        -1.034569         0.398994
 H         4.247027         0.758666         0.262916
 H         2.754156        -1.221563        -0.820593
 H         3.265195         0.179736        -3.048639
 H         1.503895         0.204947        -2.778796
 H         3.366973         2.535855        -2.063140
 H         1.651003         2.500197        -2.460343
 H         2.177684         2.667996         1.316712
