19
Iteration:  2584
 C        -0.054725         0.109483        -0.020719
 C         1.400863         0.442394        -0.017167
 O         2.245992         0.088052         1.169034
 C         3.219371         0.525789         0.137707
 C         2.442927        -0.324453        -0.966083
 C         2.582317         0.418714        -2.229620
 C         2.228822         1.861806        -1.886078
 C         2.216196         1.711219        -0.355345
 O         2.171846         2.867323         0.450780
 H        -0.653051         0.747946         0.617486
 H        -0.346034        -0.030647        -1.068673
 H         0.204624        -0.912813         0.412344
 H         4.334811         0.530846         0.351893
 H         2.358729        -1.403267        -1.022575
 H         3.620182         0.336423        -2.746954
 H         1.856252         0.027700        -2.910019
 H         2.886892         2.570579        -2.257731
 H         1.233860         2.116335        -2.246387
 H         1.281787         2.937293         0.876775
