19
Iteration:  4732charge 0 multiplicity 1
 C        -0.052076         0.308784         0.176237
 C         1.383169         0.304952        -0.070433
 O         2.211090         0.112553         1.177382
 C         3.192507         0.607407         0.090614
 C         2.552780        -0.337698        -0.977652
 C         2.644318         0.418146        -2.379124
 C         2.384316         1.860214        -1.865975
 C         2.166483         1.602285        -0.363844
 O         1.927060         2.769613         0.393294
 H        -0.251207         1.094442         0.990109
 H        -0.702365         0.348300        -0.706900
 H        -0.293060        -0.775202         0.535013
 H         4.206535         0.579126         0.544978
 H         2.915248        -1.369042        -0.935084
 H         3.671527         0.481515        -2.769333
 H         1.999065         0.044793        -3.226370
 H         3.196281         2.711892        -2.091796
 H         1.453068         2.328792        -2.165122
 H         2.213629         2.409778         1.240657
