19
Iteration:   362charge 0 multiplicity 1
 C        -0.062282         0.043067         0.027868
 C         1.450000         0.384476         0.029916
 O         2.263660         0.207586         1.143086
 C         3.225555         0.536630         0.059097
 C         2.405117        -0.340471        -0.931531
 C         2.528205         0.327810        -2.295117
 C         2.305881         1.959801        -1.892630
 C         2.247883         1.708522        -0.387977
 O         2.068648         2.860571         0.493539
 H        -0.667991         0.726568         0.662156
 H        -0.312281         0.234169        -1.100854
 H        -0.294422        -1.003816         0.225590
 H         4.261953         0.676337         0.355292
 H         2.572545        -1.506106        -0.888237
 H         3.486087         0.230505        -2.701746
 H         1.782051        -0.156066        -3.050091
 H         3.135136         2.434877        -2.245937
 H         1.418392         2.298898        -2.331159
 H         1.984595         2.685680         1.446647
