19
Iteration:  3064charge 0 multiplicity 1
 C        -0.026690        -0.119449        -0.040648
 C         1.377109         0.418198         0.048788
 O         2.184180         0.155871         1.222383
 C         3.166669         0.628459         0.100041
 C         2.454067        -0.273859        -0.972604
 C         2.548363         0.378059        -2.280370
 C         2.225882         1.821136        -1.903894
 C         2.202165         1.763465        -0.290277
 O         2.275143         2.917398         0.377490
 H        -0.932859         0.235803         0.583203
 H        -0.485004         0.002930        -1.067277
 H         0.059968        -1.162380         0.150714
 H         4.198023         0.767737         0.449618
 H         2.509874        -1.415869        -0.790793
 H         3.582492         0.422771        -2.675220
 H         1.745320         0.182002        -3.059743
 H         2.888206         2.657081        -2.296167
 H         1.261272         1.906481        -2.290404
 H         2.343326         2.988935         1.338499
