19
Iteration:  1513
 C        -0.030642         0.048090         0.098613
 C         1.437439         0.360589        -0.073686
 O         2.200561         0.105263         1.123409
 C         3.218923         0.565948         0.152977
 C         2.421291        -0.275451        -0.935089
 C         2.542356         0.405715        -2.255320
 C         2.291021         1.821405        -1.881079
 C         2.281179         1.745736        -0.360468
 O         2.079169         2.918358         0.373894
 H        -0.356730         0.846203         0.748937
 H        -0.610114         0.064014        -0.942868
 H        -0.233404        -0.917477         0.603982
 H         4.230224         0.521990         0.241342
 H         2.604945        -1.319088        -0.771943
 H         3.594759         0.387462        -2.587321
 H         1.842739         0.035463        -2.990351
 H         3.056645         2.517950        -2.292160
 H         1.327807         2.093621        -2.310681
 H         2.014415         2.475883         1.259806
