19
Iteration:  3427
 C        -0.068046        -0.038982        -0.093601
 C         1.417649         0.422896        -0.025596
 O         2.259438         0.171262         1.143107
 C         3.253896         0.631960         0.146973
 C         2.465816        -0.301379        -0.924256
 C         2.324665         0.327333        -2.187832
 C         2.387791         1.914769        -1.881055
 C         2.310322         1.764986        -0.323821
 O         2.078332         2.871087         0.400685
 H        -0.905686         0.391489         0.482344
 H        -0.196024         0.147359        -1.132116
 H        -0.098355        -1.149865         0.114061
 H         4.264857         0.699080         0.664085
 H         2.661445        -1.345092        -0.647438
 H         3.042181         0.035374        -2.927456
 H         1.375851        -0.068724        -2.597937
 H         3.457801         2.063126        -2.253195
 H         1.635924         2.459214        -2.404689
 H         2.139857         2.586292         1.341839
