19
Iteration:  2190
 C        -0.044113        -0.010253         0.116171
 C         1.418725         0.325153        -0.071585
 O         2.143650         0.174589         1.232953
 C         3.248670         0.564651         0.172877
 C         2.520738        -0.243779        -0.996415
 C         2.360567         0.501365        -2.378896
 C         2.483750         1.940774        -1.824763
 C         2.289400         1.600445        -0.377161
 O         2.026464         2.825249         0.354586
 H        -0.613346         0.537061         0.918588
 H        -0.368102         0.146924        -0.937214
 H        -0.099723        -1.132774         0.415265
 H         4.304481         0.662195         0.573223
 H         2.659072        -1.259852        -1.229098
 H         3.120222         0.083212        -3.219183
 H         1.390051         0.280720        -2.725921
 H         3.505339         2.092685        -2.059139
 H         1.873817         2.867376        -2.289017
 H         2.055185         2.730631         1.338667
