19
Iteration:  4583charge 0 multiplicity 1
 C        -0.104506         0.284608         0.172808
 C         1.373508         0.264662        -0.117925
 O         2.404919         0.081666         1.233807
 C         3.098353         0.534907         0.114386
 C         2.449580        -0.340611        -0.984650
 C         2.722814         0.436666        -2.404603
 C         2.348848         1.913358        -1.829497
 C         2.226987         1.623180        -0.313556
 O         1.900869         2.830715         0.333546
 H        -0.419963         1.236098         0.619931
 H        -0.689818         0.095689        -0.823872
 H        -0.293440        -0.595568         0.951077
 H         4.179731         0.781357         0.118367
 H         2.489931        -1.417670        -0.893851
 H         3.870716         0.332702        -2.672155
 H         1.992001         0.106920        -3.193365
 H         3.219016         2.487042        -1.942188
 H         1.397758         2.472717        -2.280758
 H         1.859687         2.439372         1.262318
