19
Iteration:  4100charge 0 multiplicity 1
 C        -0.050905         0.002620         0.137123
 C         1.369093         0.340254        -0.127801
 O         2.234335         0.071238         1.207272
 C         3.148301         0.559959         0.112923
 C         2.448009        -0.274892        -0.983696
 C         2.536446         0.468178        -2.372284
 C         2.416361         1.979885        -1.779488
 C         2.157984         1.695002        -0.327149
 O         2.137253         2.854024         0.332912
 H        -0.419324         0.581022         1.015416
 H        -0.693786         0.216787        -0.686885
 H        -0.092278        -1.102700         0.262200
 H         4.217602         0.638278         0.276456
 H         2.731723        -1.353735        -0.942824
 H         3.601727         0.203020        -2.655812
 H         1.835562         0.064172        -3.067285
 H         3.239754         2.593305        -1.790029
 H         1.570282         2.507516        -2.284128
 H         1.645866         2.740254         1.179571
