19
Iteration:  1071charge 0 multiplicity 1
 C        -0.101381         0.075616         0.117032
 C         1.404265         0.298219        -0.078284
 O         2.254497         0.092530         1.176994
 C         3.210911         0.627480         0.111760
 C         2.513511        -0.308670        -0.924328
 C         2.510040         0.407420        -2.342584
 C         2.403855         1.939328        -1.866544
 C         2.160696         1.730189        -0.353246
 O         2.085448         2.827069         0.375117
 H        -0.446949         0.885849         0.761857
 H        -0.619843         0.182939        -0.808103
 H        -0.353218        -0.955313         0.553525
 H         4.202882         0.754954         0.555397
 H         2.616197        -1.359822        -0.784815
 H         3.526163         0.218221        -2.965856
 H         1.644569         0.022430        -2.923756
 H         3.189582         2.664128        -2.054801
 H         1.555406         2.245522        -2.565875
 H         1.911739         2.535848         1.300008
