19
Iteration:  4130
 C        -0.119855        -0.091467         0.117318
 C         1.374557         0.349852        -0.080250
 O         2.180985         0.058494         1.131483
 C         3.165109         0.606013         0.127709
 C         2.534880        -0.279639        -0.999476
 C         2.422272         0.410764        -2.374829
 C         2.467394         1.915273        -1.818681
 C         2.308385         1.785493        -0.336477
 O         2.137751         2.958996         0.456541
 H        -0.707416         0.557626         0.836925
 H        -0.476073        -0.086113        -0.916025
 H        -0.180531        -1.064032         0.405290
 H         4.248905         0.653580         0.458330
 H         2.827683        -1.380067        -0.952116
 H         3.222098         0.039408        -3.012289
 H         1.504026         0.057615        -2.872480
 H         3.347774         2.571913        -2.151148
 H         1.596074         2.421845        -2.208203
 H         1.574767         2.742480         1.248737
