19
Iteration:  3402charge 0 multiplicity 1
 C        -0.039472         0.026778        -0.148269
 C         1.453640         0.275979        -0.033805
 O         2.292096         0.193450         1.345285
 C         3.220278         0.652981         0.091644
 C         2.467534        -0.337510        -0.961815
 C         2.427026         0.395183        -2.306831
 C         2.303400         1.874163        -1.835451
 C         2.124734         1.672241        -0.264292
 O         2.164641         2.899164         0.362612
 H        -0.711862         0.794541         0.358188
 H        -0.271692         0.038152        -1.250712
 H        -0.288520        -0.859483         0.295527
 H         4.251607         0.675944         0.327287
 H         2.605818        -1.355872        -0.645062
 H         3.134026         0.112033        -3.073393
 H         1.484256         0.137535        -2.859484
 H         3.349192         2.359128        -2.020606
 H         1.484106         2.261639        -2.415466
 H         2.060643         2.784418         1.339682
