19
Iteration:  2026charge 0 multiplicity 1
 C        -0.022970        -0.009933         0.105056
 C         1.350829         0.347027        -0.161689
 O         2.240899         0.139980         1.170203
 C         3.161778         0.563221         0.208812
 C         2.466390        -0.296604        -1.006483
 C         2.395669         0.456958        -2.313258
 C         2.460354         1.935187        -1.871076
 C         2.295874         1.701277        -0.374678
 O         2.063765         2.843282         0.424260
 H        -0.620232         0.575621         0.799725
 H        -0.636135        -0.039175        -0.855473
 H        -0.074693        -1.043652         0.595932
 H         4.267927         0.678720         0.431552
 H         2.427139        -1.292556        -0.763636
 H         3.306118         0.237702        -2.973805
 H         1.549367         0.383791        -2.943611
 H         3.444660         2.299572        -2.007181
 H         1.755986         2.691439        -2.305590
 H         2.294597         2.556070         1.336397
