19
Iteration:  4133charge 0 multiplicity 1
 C        -0.111638        -0.087505         0.074068
 C         1.393324         0.355593        -0.092446
 O         2.195305         0.067619         1.149900
 C         3.161787         0.631563         0.129550
 C         2.497015        -0.284663        -0.997116
 C         2.422716         0.387105        -2.375751
 C         2.456192         1.925324        -1.815265
 C         2.331562         1.770575        -0.324200
 O         2.120387         2.945685         0.454740
 H        -0.630654         0.539916         0.790773
 H        -0.562808        -0.070270        -0.889435
 H        -0.147974        -1.083899         0.532825
 H         4.197310         0.546518         0.422707
 H         2.861775        -1.329034        -0.963250
 H         3.245834        -0.000960        -3.041072
 H         1.528376         0.111700        -2.894250
 H         3.274801         2.468232        -2.113661
 H         1.576983         2.563320        -2.131963
 H         1.683226         2.814909         1.295255
