19
Iteration:    78charge 0 multiplicity 1
 C        -0.118296         0.017945         0.036735
 C         1.410646         0.318378        -0.066431
 O         2.246363         0.135721         1.165106
 C         3.231877         0.589187         0.269776
 C         2.551823        -0.242314        -0.955954
 C         2.444584         0.391734        -2.315385
 C         2.317211         1.858255        -1.891964
 C         2.364739         1.741720        -0.365031
 O         2.051546         2.891236         0.347580
 H        -0.661353         0.679622         0.653410
 H        -0.556248         0.078094        -0.918363
 H        -0.427589        -0.991194         0.331284
 H         4.195992         0.596828         0.771622
 H         2.685308        -1.354028        -0.900026
 H         3.301341         0.205407        -2.898343
 H         1.584421        -0.048718        -2.885880
 H         3.213497         2.314547        -2.234372
 H         1.470645         2.614138        -2.059677
 H         1.887958         2.524120         1.262476
