19
Iteration:   865charge 0 multiplicity 1
 C        -0.052595         0.310754        -0.004835
 C         1.448467         0.345075         0.010365
 O         2.325411         0.128856         1.171961
 C         3.213851         0.581350         0.020898
 C         2.507943        -0.345834        -1.002982
 C         2.588641         0.378644        -2.274454
 C         2.304189         1.868358        -1.853336
 C         2.210227         1.654682        -0.322288
 O         1.955437         2.770287         0.516449
 H        -0.518657         1.131642         0.612457
 H        -0.400180         0.468107        -1.029266
 H        -0.545396        -0.679771         0.291646
 H         4.262582         0.676053         0.117634
 H         2.777811        -1.404762        -0.789188
 H         3.523936         0.296672        -2.700720
 H         1.835835         0.005682        -3.053691
 H         2.952673         2.401513        -2.531088
 H         1.288179         1.966968        -2.280804
 H         1.571852         2.377989         1.344745
