19
Iteration:  3860
 C        -0.058344         0.366782        -0.032805
 C         1.475862         0.383929        -0.112443
 O         2.362694        -0.011724         1.204144
 C         3.273473         0.550229         0.152261
 C         2.602188        -0.287227        -0.972961
 C         2.553001         0.410230        -2.286560
 C         2.184053         1.843984        -1.877477
 C         2.239655         1.769401        -0.391710
 O         1.892534         2.706311         0.518663
 H        -0.355646         1.013746         0.838354
 H        -0.500028         0.869733        -0.868674
 H        -0.526480        -0.639770         0.049689
 H         4.303522         0.547111         0.449684
 H         2.609648        -1.393891        -0.785207
 H         3.555671         0.284773        -2.779551
 H         1.875002        -0.048299        -2.962760
 H         2.779765         2.522515        -2.462384
 H         1.141808         2.226827        -2.252914
 H         1.686209         2.193250         1.342257
