19
Iteration:   993charge 0 multiplicity 1
 C        -0.049621         0.251613         0.011037
 C         1.406150         0.288132        -0.125586
 O         2.288719         0.190281         1.201886
 C         3.218313         0.609630         0.109075
 C         2.581059        -0.309556        -0.919405
 C         2.573803         0.418609        -2.380960
 C         2.237587         1.862843        -1.808860
 C         2.170716         1.594562        -0.346580
 O         2.034308         2.747237         0.440485
 H        -0.283547         1.029289         0.702251
 H        -0.549018         0.545114        -0.949272
 H        -0.516992        -0.626683         0.416236
 H         4.263323         0.863121         0.437875
 H         2.607164        -1.429898        -0.835567
 H         3.579575         0.086202        -2.955915
 H         1.784761        -0.113560        -2.880662
 H         2.928263         2.686966        -1.906540
 H         1.246027         2.193756        -2.237791
 H         2.005210         2.316504         1.334770
