19
Iteration:  2529
 C        -0.004997        -0.053582        -0.002666
 C         1.407396         0.411868        -0.051604
 O         2.157576         0.144440         1.175407
 C         3.219207         0.606248         0.180096
 C         2.513446        -0.292351        -0.881133
 C         2.348813         0.431035        -2.324220
 C         2.514241         1.911692        -1.830458
 C         2.255921         1.684439        -0.402723
 O         2.019903         2.844835         0.368828
 H        -0.305422         0.624046         0.788194
 H        -0.622070         0.145140        -0.894887
 H        -0.206562        -1.161716         0.290658
 H         4.305536         0.604573         0.471913
 H         2.508972        -1.359558        -0.796078
 H         3.077919         0.157109        -3.184930
 H         1.362133         0.303657        -2.664121
 H         3.453328         2.301535        -2.031540
 H         1.807874         2.632197        -2.209267
 H         2.610906         2.678694         1.142797
