19
Iteration:  1744
 C         0.009581         0.371273         0.143902
 C         1.445662         0.324629        -0.106742
 O         2.255191         0.136445         1.146225
 C         3.300099         0.475396         0.233208
 C         2.619113        -0.300270        -1.003099
 C         2.562373         0.403761        -2.434088
 C         2.314659         1.813660        -1.900761
 C         2.223214         1.651659        -0.304086
 O         1.789271         2.752831         0.421967
 H        -0.239772         1.004685         0.956548
 H        -0.510618         0.639351        -0.755446
 H        -0.424347        -0.631898         0.503015
 H         4.410585         0.564201         0.411422
 H         2.493355        -1.426481        -0.967575
 H         3.457455         0.305148        -3.050797
 H         1.637714        -0.021323        -2.970328
 H         3.201623         2.481044        -2.179491
 H         1.393728         2.450460        -2.055965
 H         2.054739         2.662119         1.343621
