19
Iteration:  2187
 C        -0.033269        -0.012824         0.147869
 C         1.398674         0.340969        -0.108386
 O         2.155041         0.185443         1.219935
 C         3.209300         0.589390         0.211823
 C         2.513911        -0.239475        -1.004168
 C         2.374709         0.494513        -2.375696
 C         2.475095         1.930462        -1.842751
 C         2.289624         1.596780        -0.331896
 O         2.039807         2.806059         0.350499
 H        -0.581277         0.471363         0.845709
 H        -0.319248         0.181510        -0.946467
 H        -0.005787        -1.065784         0.401349
 H         4.204675         0.653371         0.611354
 H         2.701093        -1.349814        -1.433335
 H         3.087496         0.142727        -3.178848
 H         1.389868         0.312599        -2.798318
 H         3.559959         2.138707        -2.115041
 H         1.834267         2.747167        -2.309919
 H         2.155467         2.652922         1.307158
