19
Iteration:  4294charge 0 multiplicity 1
 C         0.004892        -0.029243         0.021821
 C         1.448077         0.353203        -0.149870
 O         2.142417         0.236522         1.233207
 C         3.227391         0.583619         0.163408
 C         2.498315        -0.329029        -0.947622
 C         2.416745         0.431811        -2.351241
 C         2.400777         1.946486        -1.841819
 C         2.233353         1.706633        -0.331486
 O         2.093235         2.793854         0.397847
 H        -0.437702         0.535181         0.929577
 H        -0.774227         0.087059        -0.748530
 H        -0.184036        -1.011086         0.288108
 H         4.314323         0.647501         0.353644
 H         2.690810        -1.434630        -0.808306
 H         3.177938         0.213731        -3.077290
 H         1.498082         0.055268        -2.829458
 H         3.323234         2.616045        -2.064890
 H         1.652583         2.422825        -2.369432
 H         2.099870         2.568810         1.340004
