19
Iteration:  2423
 C        -0.063001         0.191734         0.043418
 C         1.402018         0.373749        -0.069970
 O         2.257297         0.089365         1.129047
 C         3.178036         0.554651         0.130335
 C         2.500529        -0.318223        -0.907998
 C         2.663231         0.431496        -2.294991
 C         2.138985         1.832563        -1.796391
 C         2.271473         1.678024        -0.338011
 O         2.085417         2.825153         0.373243
 H        -0.665136         1.019263         0.606902
 H        -0.373301         0.349125        -0.994714
 H        -0.408731        -0.747470         0.365058
 H         4.262310         0.615124         0.387064
 H         2.527334        -1.385992        -0.627480
 H         3.692528         0.545956        -2.672584
 H         2.051245         0.078569        -3.171617
 H         2.858483         2.550506        -2.334758
 H         1.124846         2.035246        -2.232720
 H         2.239595         2.519994         1.310813
