19
Iteration:  1918
 C        -0.124234         0.365067         0.046088
 C         1.466457         0.332732        -0.034442
 O         2.276095         0.077189         1.159754
 C         3.216289         0.632583         0.068937
 C         2.597861        -0.331847        -0.986110
 C         2.544350         0.406987        -2.278396
 C         2.290715         1.876121        -1.874001
 C         2.252317         1.607602        -0.375093
 O         1.945080         2.679564         0.462797
 H        -0.006335         1.124867         0.777202
 H        -0.520144         0.824542        -0.877097
 H        -0.444358        -0.653269         0.403527
 H         4.347213         0.793554         0.391727
 H         2.832889        -1.349933        -0.746454
 H         3.460784         0.489502        -2.895217
 H         1.786160         0.003133        -2.914630
 H         3.024563         2.511146        -2.264245
 H         1.277348         2.320481        -2.091678
 H         1.663288         2.289746         1.320070
