19
Iteration:  2493charge 0 multiplicity 1
 C        -0.059882         0.171142         0.070584
 C         1.416043         0.346178        -0.049756
 O         2.322260         0.115815         1.166668
 C         3.214985         0.514278         0.050397
 C         2.490311        -0.328825        -0.901663
 C         2.562961         0.406126        -2.303833
 C         2.465787         1.898890        -1.863917
 C         2.163646         1.702445        -0.400119
 O         1.879959         2.837445         0.429949
 H        -0.352798         0.885775         0.834264
 H        -0.585000         0.563587        -0.843456
 H        -0.452065        -0.861697         0.430901
 H         4.276361         0.477170         0.244584
 H         2.409037        -1.419458        -0.692469
 H         3.423724         0.234847        -2.936650
 H         1.637084         0.054351        -2.904542
 H         3.391799         2.511191        -1.994541
 H         1.659337         2.440645        -2.334362
 H         2.194517         2.481237         1.297541
