19
Iteration:  3880
 C        -0.023508         0.349631        -0.070551
 C         1.412865         0.251322        -0.086085
 O         2.321922         0.119182         1.168450
 C         3.274336         0.541841         0.135314
 C         2.612883        -0.371960        -0.968207
 C         2.565011         0.463096        -2.347740
 C         2.167496         1.877914        -1.804540
 C         2.196950         1.564724        -0.285851
 O         1.907508         2.766222         0.479184
 H        -0.257548         0.958328         0.876065
 H        -0.255702         1.034432        -0.912715
 H        -0.605266        -0.513399        -0.031642
 H         4.336127         0.751788         0.353727
 H         3.007760        -1.424582        -0.920645
 H         3.423789         0.332811        -3.018156
 H         1.775296         0.021119        -2.862459
 H         2.828854         2.630534        -2.061488
 H         1.180879         2.309187        -2.158890
 H         2.305674         2.745690         1.377441
