19
Iteration:  1631charge 0 multiplicity 1
 C        -0.033334         0.002454        -0.115180
 C         1.432975         0.386700         0.100937
 O         2.262646         0.177622         1.271748
 C         3.212538         0.593937         0.110094
 C         2.455292        -0.223430        -0.936920
 C         2.424079         0.363302        -2.302588
 C         2.286853         1.844253        -1.866673
 C         2.123581         1.650693        -0.352690
 O         2.211828         2.840966         0.376069
 H        -0.618950         0.577380         0.522706
 H        -0.179532         0.203274        -1.195785
 H        -0.195027        -0.987993         0.078200
 H         4.382315         0.700457         0.252016
 H         2.573182        -1.275629        -1.070221
 H         3.319389         0.194978        -2.974070
 H         1.564993         0.109272        -2.834160
 H         3.173122         2.507187        -1.947250
 H         1.553428         2.587257        -2.272616
 H         1.900327         2.814640         1.309237
