19
Iteration:  1391charge 0 multiplicity 1
 C        -0.118185         0.354477         0.279593
 C         1.404957         0.338891        -0.107361
 O         2.327803         0.094274         1.146697
 C         3.181330         0.493237         0.121134
 C         2.612743        -0.299063        -0.989254
 C         2.703157         0.369764        -2.339814
 C         2.236224         1.820919        -1.932793
 C         2.213395         1.671226        -0.369110
 O         1.873782         2.809721         0.407772
 H        -0.295237         1.195347         1.026388
 H        -0.708033         0.524350        -0.747817
 H        -0.435302        -0.610394         0.678276
 H         4.208963         0.509825         0.432944
 H         2.742313        -1.390685        -1.163219
 H         3.837366         0.236170        -2.582273
 H         2.139379        -0.039872        -3.229456
 H         2.974253         2.524177        -2.300119
 H         1.217959         1.986856        -2.398134
 H         2.171451         2.746556         1.330381
