19
Iteration:  2459charge 0 multiplicity 1
 C        -0.055005         0.309647         0.120756
 C         1.413903         0.287784        -0.035988
 O         2.254933         0.103220         1.184204
 C         3.167671         0.511191         0.143997
 C         2.555084        -0.321234        -0.998530
 C         2.696053         0.445597        -2.418201
 C         2.225475         1.803408        -1.876879
 C         2.259410         1.693389        -0.328858
 O         2.021057         2.799807         0.431706
 H        -0.233794         1.183865         0.815755
 H        -0.443690         0.433114        -0.931392
 H        -0.528020        -0.630529         0.512427
 H         4.187464         0.575504         0.479247
 H         2.557201        -1.440137        -0.717128
 H         3.678188         0.540368        -2.795185
 H         1.990050        -0.076664        -3.249125
 H         2.767933         2.734824        -2.299487
 H         1.142675         1.983826        -2.046593
 H         1.208836         2.627896         0.971630
