19
Iteration:  3074charge 0 multiplicity 1
 C        -0.014200        -0.145079        -0.091989
 C         1.349740         0.493021        -0.012664
 O         2.226049         0.161407         1.141307
 C         3.222777         0.589672         0.130826
 C         2.428052        -0.255991        -0.834596
 C         2.546553         0.386178        -2.243475
 C         2.172345         1.847013        -1.877685
 C         2.198028         1.739088        -0.319849
 O         2.230902         2.954270         0.397996
 H        -0.695440         0.197866         0.718128
 H        -0.418549        -0.017103        -1.126732
 H         0.108879        -1.232671         0.032100
 H         4.271354         0.497506         0.394954
 H         2.245890        -1.357436        -0.622076
 H         3.489704         0.138081        -2.732127
 H         1.850190        -0.086272        -3.048111
 H         2.936539         2.552040        -2.298753
 H         1.271027         2.178963        -2.262514
 H         2.676192         2.589820         1.182143
