19
Iteration:  4907
 C        -0.081140         0.314442         0.161164
 C         1.423487         0.321612        -0.179258
 O         2.321147         0.056680         1.112941
 C         3.193579         0.558025         0.118405
 C         2.620506        -0.362737        -0.971575
 C         2.624414         0.425740        -2.278556
 C         2.376381         1.871545        -1.886144
 C         2.145466         1.703311        -0.312518
 O         1.865238         2.790831         0.402276
 H        -0.279796         0.812719         1.178713
 H        -0.716569         0.894338        -0.526711
 H        -0.631825        -0.686104         0.400680
 H         4.292657         0.506265         0.454879
 H         2.796505        -1.410198        -0.850382
 H         3.455362         0.141584        -2.961212
 H         1.701717        -0.036536        -2.767974
 H         3.292808         2.560023        -2.143398
 H         1.559421         2.327520        -2.335104
 H         1.801040         2.486399         1.350126
