19
Iteration:  4591
 C        -0.106650         0.230512         0.158192
 C         1.402217         0.336717        -0.088262
 O         2.381351         0.134935         1.213569
 C         3.204859         0.495377         0.060290
 C         2.430284        -0.370155        -0.977459
 C         2.667221         0.481276        -2.390846
 C         2.387386         1.874890        -1.788795
 C         2.180451         1.630269        -0.346446
 O         1.897543         2.801136         0.344215
 H        -0.533895         1.191698         0.531369
 H        -0.687931         0.067188        -0.703226
 H        -0.608458        -0.542429         0.802037
 H         4.260241         0.648577         0.287567
 H         2.592492        -1.418267        -0.943126
 H         3.697914         0.208172        -2.687548
 H         2.116105         0.027261        -3.222709
 H         3.280154         2.608069        -1.857684
 H         1.479247         2.410038        -2.121018
 H         1.838628         2.813734         1.334341
