19
Iteration:  4976
 C        -0.092696         0.083568        -0.045173
 C         1.410672         0.316572        -0.034478
 O         2.177267         0.108827         1.188730
 C         3.187102         0.668868         0.124550
 C         2.532526        -0.242174        -0.921499
 C         2.519567         0.402927        -2.320225
 C         2.252513         1.880234        -1.907616
 C         2.280490         1.670376        -0.299360
 O         2.166817         2.811894         0.471190
 H        -0.709772         0.771525         0.503494
 H        -0.341402        -0.010156        -1.191564
 H        -0.132067        -0.847139         0.543533
 H         4.194041         0.747303         0.277573
 H         2.666539        -1.328094        -0.829088
 H         3.393818         0.366507        -2.951671
 H         1.663566         0.098555        -2.965793
 H         3.020757         2.510050        -2.257621
 H         1.333970         2.300712        -2.322226
 H         2.211067         2.439145         1.355239
