19
Iteration:  4737charge 0 multiplicity 1
 C        -0.063652         0.307739         0.179804
 C         1.381406         0.311310        -0.046554
 O         2.206773         0.132182         1.184459
 C         3.231023         0.596670         0.060936
 C         2.545399        -0.358913        -0.998086
 C         2.676279         0.415490        -2.396379
 C         2.390131         1.863874        -1.841130
 C         2.192719         1.597138        -0.385685
 O         1.892996         2.778685         0.417270
 H        -0.350690         1.039210         0.881181
 H        -0.759386         0.348155        -0.667147
 H        -0.350489        -0.640959         0.568805
 H         4.245740         0.542021         0.434224
 H         2.902261        -1.400302        -0.985237
 H         3.700105         0.394053        -2.820581
 H         1.941797         0.101789        -3.123550
 H         3.109351         2.562516        -2.019233
 H         1.415849         2.324395        -2.230358
 H         2.188570         2.494738         1.325039
