19
Iteration:  1688charge 0 multiplicity 1
 C        -0.097203         0.065325         0.133208
 C         1.328580         0.389269         0.025874
 O         2.214535         0.160973         1.203930
 C         3.174279         0.559951         0.125786
 C         2.515215        -0.376055        -0.987736
 C         2.604451         0.471061        -2.389196
 C         2.342642         1.866738        -1.900238
 C         2.151033         1.674927        -0.353116
 O         2.136906         2.868700         0.380443
 H        -0.684769         0.689983         0.700378
 H        -0.544422        -0.044764        -0.897129
 H         0.021313        -0.983570         0.481040
 H         4.282825         0.646400         0.289954
 H         2.711280        -1.513714        -1.032930
 H         3.590335         0.314117        -2.932337
 H         1.846977         0.222530        -3.156185
 H         3.214337         2.594034        -1.986444
 H         1.367236         2.404197        -2.103086
 H         2.226763         2.528766         1.302138
