19
Iteration:    17
 C        -0.184104        -0.076351        -0.006121
 C         1.365564         0.400107        -0.054479
 O         2.340296         0.178241         1.328806
 C         3.221809         0.547749         0.111885
 C         2.474775        -0.290344        -0.912057
 C         2.585372         0.364277        -2.318439
 C         2.380453         1.903473        -2.047206
 C         2.201508         1.770026        -0.379629
 O         2.077165         2.924371         0.489411
 H        -0.739123         0.605311         0.683326
 H        -0.639943         0.116982        -1.173674
 H        -0.125924        -1.141700         0.309728
 H         4.312747         0.676430         0.300272
 H         2.354774        -1.416747        -0.908219
 H         3.359247        -0.058119        -3.019431
 H         1.544271         0.085312        -2.685746
 H         3.193157         2.636755        -2.270308
 H         1.363578         2.153380        -2.526499
 H         2.046770         2.427222         1.349686
