19
Iteration:  4383
 C        -0.052510         0.250218         0.117175
 C         1.452019         0.317312        -0.152465
 O         2.253744         0.187983         1.284210
 C         3.183585         0.496696         0.129624
 C         2.594580        -0.325816        -1.000447
 C         2.583117         0.457649        -2.304555
 C         2.248061         1.841609        -1.841135
 C         2.245580         1.642205        -0.389640
 O         1.950435         2.735042         0.382472
 H        -0.293725         1.264885         0.682408
 H        -0.534831         0.222496        -0.857738
 H        -0.203630        -0.689425         0.698609
 H         4.230450         0.713570         0.326409
 H         2.657797        -1.424357        -1.081494
 H         3.561164         0.605448        -2.840812
 H         2.035854         0.153888        -3.215918
 H         2.981596         2.633518        -2.173792
 H         1.376296         2.316842        -2.338110
 H         1.752973         2.412497         1.303546
