19
Iteration:  3984
 C        -0.115945        -0.022172         0.043321
 C         1.364717         0.359861        -0.007282
 O         2.218178         0.077719         1.132028
 C         3.208668         0.608589         0.009880
 C         2.494659        -0.298594        -0.977026
 C         2.517561         0.428181        -2.360103
 C         2.405475         1.914523        -1.808188
 C         2.318280         1.734765        -0.309041
 O         2.001336         2.869141         0.496689
 H        -0.592674         0.803478         0.443807
 H        -0.469998        -0.164622        -0.968307
 H        -0.279648        -1.033938         0.502026
 H         4.281096         0.584314         0.252637
 H         2.525960        -1.317207        -0.685951
 H         3.440240         0.429155        -2.905366
 H         1.600937         0.154968        -2.983948
 H         3.417423         2.472866        -1.961009
 H         1.596743         2.416720        -2.298704
 H         2.527544         2.945711         1.317273
