19
Iteration:  2938charge 0 multiplicity 1
 C         0.004242         0.046961        -0.014932
 C         1.401153         0.362261        -0.069225
 O         2.234546         0.100814         1.170009
 C         3.186960         0.593744         0.131753
 C         2.491736        -0.315097        -0.895593
 C         2.530527         0.354153        -2.280941
 C         2.293273         1.882287        -1.882874
 C         2.266849         1.730005        -0.381051
 O         2.067826         2.916860         0.423917
 H        -0.508609         0.737995         0.653435
 H        -0.481187         0.217286        -0.971997
 H        -0.275594        -0.894797         0.439513
 H         4.259363         0.515185         0.436558
 H         2.724945        -1.316056        -0.606359
 H         3.486170         0.177606        -2.813910
 H         1.666071         0.027399        -2.901112
 H         2.897758         2.601795        -2.338399
 H         1.238609         2.146106        -2.193386
 H         1.947390         2.798983         1.374760
