19
Iteration:  1948
 C        -0.046198         0.232604        -0.037580
 C         1.436076         0.396984        -0.003783
 O         2.276656         0.123385         1.179279
 C         3.242417         0.485474         0.075888
 C         2.546954        -0.375596        -1.017881
 C         2.570480         0.356420        -2.310430
 C         2.206966         1.880922        -1.907941
 C         2.220744         1.690792        -0.339381
 O         1.988899         2.855499         0.549085
 H        -0.389287         0.922915         0.783516
 H        -0.593713         0.596612        -1.038079
 H        -0.447263        -0.827605         0.212003
 H         4.329924         0.441895         0.395186
 H         2.662009        -1.453785        -0.793343
 H         3.583440         0.506393        -2.872433
 H         1.895475        -0.110493        -3.023153
 H         2.981730         2.571448        -2.239996
 H         1.174974         2.220680        -2.159334
 H         2.309880         2.600880         1.447247
