19
Iteration:  1329
 C        -0.132897         0.074962         0.038356
 C         1.416511         0.334044         0.003542
 O         2.247218         0.151285         1.259161
 C         3.260582         0.623287         0.091650
 C         2.545634        -0.249082        -0.915333
 C         2.457680         0.399145        -2.312475
 C         2.326547         1.886979        -1.928592
 C         2.256739         1.664292        -0.386618
 O         2.068228         2.785170         0.360779
 H        -0.657245         0.749368         0.631455
 H        -0.503826         0.219610        -0.996301
 H        -0.366411        -0.919914         0.317396
 H         4.285650         0.698696         0.446763
 H         2.675555        -1.318428        -0.758209
 H         3.306817         0.219946        -2.903485
 H         1.478281         0.005607        -2.741706
 H         3.173519         2.624245        -2.142845
 H         1.459424         2.446196        -2.233624
 H         2.419271         2.630314         1.244624
