19
Iteration:   207
 C         0.045783        -0.028930        -0.079434
 C         1.457058         0.391437         0.011935
 O         2.239113         0.194236         1.222447
 C         3.261916         0.453402         0.181604
 C         2.394461        -0.368288        -0.921111
 C         2.452595         0.429294        -2.296267
 C         2.314086         1.917924        -1.849319
 C         2.159085         1.703301        -0.368350
 O         2.132825         2.958891         0.343404
 H        -0.832445         0.524141         0.537518
 H        -0.389369         0.045333        -1.035691
 H        -0.117216        -1.127416         0.278561
 H         4.299334         0.534088         0.529985
 H         2.334808        -1.486994        -0.934879
 H         3.308506         0.166598        -2.971976
 H         1.481534         0.360066        -2.832518
 H         3.298888         2.522340        -1.850499
 H         1.535692         2.424132        -2.357966
 H         2.000471         2.760124         1.305216
