19
Iteration:  2207
 C        -0.041554        -0.001631         0.008790
 C         1.416279         0.340053        -0.047353
 O         2.281449         0.113514         1.170737
 C         3.196350         0.562224         0.063116
 C         2.493737        -0.345920        -0.916846
 C         2.355161         0.448207        -2.267278
 C         2.544305         1.927170        -1.826228
 C         2.222052         1.751044        -0.288511
 O         1.999418         2.889965         0.357976
 H        -0.463259         0.714287         0.732676
 H        -0.566932         0.232570        -0.952341
 H        -0.184560        -0.969729         0.409555
 H         4.236869         0.465132         0.300696
 H         2.648995        -1.526762        -0.928200
 H         3.024478         0.285622        -3.047269
 H         1.331726         0.364800        -2.783733
 H         3.557404         2.451768        -1.919650
 H         1.790209         2.449922        -2.340684
 H         1.783246         2.449487         1.230514
