19
Iteration:  1782
 C        -0.053551         0.150310        -0.031869
 C         1.449908         0.349778        -0.017192
 O         2.330664         0.134695         1.151186
 C         3.239721         0.635551         0.092835
 C         2.459733        -0.285813        -0.902584
 C         2.484280         0.389088        -2.312898
 C         2.265065         1.862103        -1.854278
 C         2.172430         1.613059        -0.338909
 O         2.068280         2.820998         0.476820
 H        -0.545851         1.014484         0.550490
 H        -0.236257         0.531399        -1.093568
 H        -0.344401        -0.866531         0.045625
 H         4.297520         0.673798         0.355892
 H         2.560716        -1.367466        -0.887468
 H         3.506087         0.297117        -2.781433
 H         1.783897        -0.126451        -2.939368
 H         3.201169         2.362047        -2.069834
 H         1.380513         2.277202        -2.284910
 H         1.691252         2.487639         1.309455
