19
Iteration:  1040
 C         0.006527         0.354654         0.075498
 C         1.466156         0.376243        -0.060193
 O         2.343458         0.142682         1.151585
 C         3.303666         0.471327         0.140808
 C         2.478413        -0.372508        -0.995443
 C         2.603980         0.397369        -2.339704
 C         2.241825         1.863540        -1.793496
 C         2.214178         1.662670        -0.332972
 O         1.847247         2.732098         0.384213
 H        -0.520451         1.132447         0.674223
 H        -0.485419         0.467149        -0.818587
 H        -0.469585        -0.575380         0.531824
 H         4.258933         0.494650         0.533625
 H         2.496005        -1.428432        -0.962429
 H         3.660728         0.587375        -2.654623
 H         2.070917         0.071938        -3.289508
 H         2.967126         2.670777        -2.122646
 H         1.174498         2.100650        -2.268894
 H         1.906388         2.579086         1.337812
