19
Iteration:  3989
 C        -0.043360         0.005704         0.016204
 C         1.411387         0.383466        -0.024270
 O         2.232239         0.052091         1.136536
 C         3.206764         0.639273         0.065677
 C         2.451816        -0.291562        -0.952703
 C         2.493876         0.429732        -2.382223
 C         2.413853         1.897099        -1.804285
 C         2.287745         1.736153        -0.311491
 O         1.977751         2.852026         0.486273
 H        -0.599333         0.907154         0.543622
 H        -0.387474        -0.077195        -1.064984
 H        -0.368563        -0.892930         0.529703
 H         4.305378         0.531182         0.218936
 H         2.447239        -1.432657        -0.811631
 H         3.488436         0.294364        -2.907783
 H         1.720092         0.057389        -3.030000
 H         3.272663         2.478031        -2.047235
 H         1.461937         2.448688        -2.092825
 H         2.516848         2.765630         1.285541
