19
Iteration:   238charge 0 multiplicity 1
 C        -0.108228        -0.036072        -0.021185
 C         1.432001         0.401604        -0.078562
 O         2.188434         0.162591         1.125395
 C         3.265435         0.678835         0.192735
 C         2.446716        -0.284079        -0.902881
 C         2.408203         0.361492        -2.278442
 C         2.353389         1.848901        -1.860279
 C         2.348268         1.735579        -0.380899
 O         2.106415         2.840519         0.429324
 H        -0.648875         0.614688         0.788632
 H        -0.620746        -0.064678        -0.960890
 H         0.022872        -1.122506         0.338110
 H         4.328547         0.739782         0.501346
 H         2.628440        -1.317160        -0.779634
 H         3.275158         0.037836        -2.985855
 H         1.510017         0.185786        -2.808911
 H         3.286841         2.398580        -2.284015
 H         1.633529         2.517759        -2.222243
 H         2.003597         2.633618         1.360030
