19
Iteration:  2864charge 0 multiplicity 1
 C        -0.025859         0.084070         0.049376
 C         1.367239         0.395345        -0.111684
 O         2.244746         0.151266         1.164376
 C         3.171542         0.589055         0.201058
 C         2.544380        -0.279998        -0.931073
 C         2.497029         0.364806        -2.392245
 C         2.366282         1.834511        -1.842975
 C         2.219876         1.730748        -0.387268
 O         2.068697         2.872085         0.450663
 H        -0.521893         0.534017         0.894811
 H        -0.674554         0.259118        -0.822249
 H        -0.046422        -1.074365         0.354475
 H         4.239950         0.612134         0.318089
 H         2.776490        -1.298359        -0.751970
 H         3.386645         0.072999        -2.936149
 H         1.596867        -0.179636        -2.875506
 H         3.112864         2.560988        -2.218112
 H         1.445845         2.171992        -2.286155
 H         1.871523         2.497229         1.328258
