19
Iteration:  3137charge 0 multiplicity 1
 C        -0.029066         0.268579         0.118756
 C         1.464624         0.273840        -0.107326
 O         2.329021         0.089294         1.142469
 C         3.254003         0.593963         0.098746
 C         2.551459        -0.374728        -0.916102
 C         2.535304         0.413832        -2.275300
 C         2.427593         1.819653        -1.906906
 C         2.205654         1.723514        -0.410520
 O         1.773741         2.861218         0.452892
 H        -0.231740         0.990345         0.868840
 H        -0.699403         0.520904        -0.718179
 H        -0.359205        -0.765878         0.573054
 H         4.317452         0.665101         0.344542
 H         2.691255        -1.476598        -0.856074
 H         3.402431         0.181661        -2.912737
 H         1.640190         0.034899        -2.869332
 H         3.333382         2.375782        -2.224931
 H         1.524222         2.346518        -2.415949
 H         1.706531         2.438218         1.336088
