19
Iteration:  2977
 C        -0.094345         0.322759         0.125411
 C         1.447709         0.295024        -0.061258
 O         2.361112         0.177419         1.182667
 C         3.191561         0.610482         0.031310
 C         2.556334        -0.350353        -0.891123
 C         2.572661         0.390664        -2.291650
 C         2.448906         1.908001        -1.829337
 C         2.228713         1.663587        -0.408465
 O         1.779779         2.658126         0.384503
 H        -0.249124         1.312882         0.682850
 H        -0.463733         0.401298        -0.937018
 H        -0.494591        -0.597260         0.575611
 H         4.285575         0.619671         0.097717
 H         2.780567        -1.474091        -0.749993
 H         3.258019         0.168107        -3.123923
 H         1.579764         0.092628        -2.720800
 H         3.403055         2.565669        -2.071398
 H         1.580706         2.399742        -2.326933
 H         1.731191         2.199276         1.270369
