19
Iteration:  3188charge 0 multiplicity 1
 C        -0.073544         0.168887         0.197025
 C         1.419727         0.243889        -0.072590
 O         2.307634         0.155776         1.130514
 C         3.193923         0.540858         0.103492
 C         2.517049        -0.330090        -0.970840
 C         2.675187         0.408512        -2.286411
 C         2.293263         1.953986        -1.845291
 C         2.151289         1.688775        -0.390363
 O         1.977381         2.819077         0.352204
 H        -0.379113         1.195048         0.532530
 H        -0.646291         0.125343        -0.700882
 H        -0.574321        -0.503066         0.919770
 H         4.274272         0.484143         0.386020
 H         2.689314        -1.370517        -0.973929
 H         3.655078         0.056609        -2.641176
 H         2.097394        -0.039288        -3.057909
 H         2.979164         2.675875        -2.164057
 H         1.292233         2.180711        -2.280291
 H         1.817055         2.642073         1.300405
