19
Iteration:  2300
 C        -0.097379         0.190105         0.073898
 C         1.430626         0.392417         0.015183
 O         2.298240         0.087730         1.163866
 C         3.234400         0.539129         0.070299
 C         2.472885        -0.325030        -1.029763
 C         2.702825         0.357871        -2.300465
 C         2.259288         1.886692        -1.935947
 C         2.170088         1.698423        -0.303650
 O         1.992231         2.840449         0.478815
 H        -0.526245         1.024360         0.572294
 H        -0.562842         0.525024        -0.825396
 H        -0.540484        -0.772550         0.382010
 H         4.317767         0.649992         0.321926
 H         2.282829        -1.359594        -1.060013
 H         3.819107         0.224280        -2.637897
 H         2.107120        -0.013735        -3.077540
 H         2.860570         2.707701        -2.263945
 H         1.116448         1.904846        -2.268314
 H         2.293489         2.525430         1.371573
