19
Iteration:  1969charge 0 multiplicity 1
 C        -0.101497         0.067210        -0.005993
 C         1.394450         0.384971        -0.032943
 O         2.288327         0.143168         1.193661
 C         3.251796         0.540770         0.139050
 C         2.369033        -0.291777        -0.985765
 C         2.527794         0.472639        -2.258166
 C         2.263638         1.927622        -1.800398
 C         2.304212         1.645491        -0.334801
 O         2.096821         2.801637         0.355859
 H        -0.604134         0.739493         0.694144
 H        -0.352787         0.284581        -1.148338
 H        -0.174783        -1.066169         0.081984
 H         4.348197         0.501582         0.253320
 H         2.518901        -1.406881        -0.873471
 H         3.598932         0.202841        -2.648363
 H         1.826045         0.279471        -3.072706
 H         3.009729         2.710831        -2.089540
 H         1.217653         2.182322        -2.070186
 H         2.223134         2.636570         1.300522
