19
Iteration:  1345
 C        -0.095997         0.191925         0.078606
 C         1.415600         0.302609        -0.042875
 O         2.339670         0.224992         1.190076
 C         3.221256         0.519282         0.141811
 C         2.528498        -0.434837        -0.944789
 C         2.563075         0.427023        -2.370556
 C         2.263800         1.880169        -1.835415
 C         2.186069         1.645308        -0.344109
 O         2.019771         2.857782         0.362583
 H        -0.435795         1.006822         0.847763
 H        -0.595777         0.350840        -0.884279
 H        -0.470211        -0.793048         0.530060
 H         4.357654         0.659370         0.343990
 H         2.720111        -1.535089        -0.940692
 H         3.612971         0.416880        -2.853153
 H         1.883103         0.054637        -3.087508
 H         3.082362         2.513811        -2.085645
 H         1.285295         2.297412        -2.251403
 H         1.710858         2.470261         1.214927
