19
Iteration:  3185
 C        -0.079815         0.165597         0.220538
 C         1.400475         0.261259        -0.101533
 O         2.324033         0.150792         1.143692
 C         3.214369         0.530010         0.113803
 C         2.505455        -0.324793        -0.980623
 C         2.665833         0.410399        -2.261643
 C         2.292250         1.942436        -1.839309
 C         2.163131         1.665274        -0.400177
 O         1.942690         2.817850         0.337799
 H        -0.263161         1.290883         0.479176
 H        -0.651640         0.211548        -0.755522
 H        -0.524755        -0.469594         0.908557
 H         4.284567         0.519371         0.362294
 H         2.743123        -1.395927        -0.949442
 H         3.686794         0.125583        -2.614774
 H         2.042539         0.095625        -3.152802
 H         3.041650         2.726509        -2.122133
 H         1.412825         2.150146        -2.310113
 H         1.904269         2.584916         1.303619
