19
Iteration:   391
 C        -0.062077        -0.085377        -0.043730
 C         1.414136         0.442268        -0.131952
 O         2.216876         0.256565         1.226137
 C         3.240994         0.571743         0.153194
 C         2.465868        -0.278858        -0.917606
 C         2.343593         0.383605        -2.309080
 C         2.379026         1.927856        -1.861521
 C         2.289348         1.671644        -0.343024
 O         2.133199         2.801002         0.422832
 H        -0.536719         0.556027         0.753339
 H        -0.630767        -0.041912        -0.892595
 H         0.028173        -1.093605         0.391827
 H         4.277484         0.791738         0.458243
 H         2.501569        -1.354673        -0.826693
 H         3.221375         0.213003        -3.049990
 H         1.503055         0.027121        -2.823465
 H         3.411945         2.392225        -2.205272
 H         1.524608         2.559261        -2.246348
 H         2.134511         2.584503         1.371514
