19
Iteration:  2526
 C         0.000138        -0.039872        -0.002489
 C         1.437117         0.409663        -0.050841
 O         2.142028         0.147306         1.181673
 C         3.259258         0.644964         0.180111
 C         2.482703        -0.292883        -0.889145
 C         2.367754         0.446845        -2.359505
 C         2.511165         1.886494        -1.835490
 C         2.278828         1.661015        -0.382472
 O         1.997675         2.829892         0.382796
 H        -0.375529         0.554071         0.807434
 H        -0.718977         0.162564        -0.828811
 H        -0.225575        -1.105859         0.344636
 H         4.276375         0.648487         0.506031
 H         2.350344        -1.370848        -0.789341
 H         3.074120         0.262476        -3.161085
 H         1.298190         0.239967        -2.756587
 H         3.537843         2.205230        -2.112012
 H         1.797771         2.580137        -2.219192
 H         2.589397         2.740036         1.123673
