19
Iteration:   939charge 0 multiplicity 1
 C        -0.020381        -0.112331         0.038773
 C         1.312051         0.459994        -0.056376
 O         2.269759         0.058228         1.189584
 C         3.051497         0.586460         0.091136
 C         2.459818        -0.292137        -0.942233
 C         2.424229         0.483890        -2.314507
 C         2.495099         1.846706        -1.842100
 C         2.192750         1.732561        -0.346802
 O         2.208128         2.982171         0.410776
 H        -0.693497         0.320291         0.742537
 H        -0.678083        -0.221225        -0.884027
 H         0.182864        -1.135452         0.391330
 H         4.154356         0.799404         0.278970
 H         2.635996        -1.428634        -0.996472
 H         3.372369        -0.061399        -2.734250
 H         1.585001         0.139441        -2.886763
 H         3.456990         2.378051        -1.996436
 H         1.610189         2.411576        -2.383757
 H         1.637064         2.843078         1.198553
