19
Iteration:  3706charge 0 multiplicity 1
 C        -0.054873         0.355441        -0.001176
 C         1.470003         0.371985        -0.012981
 O         2.291676         0.052409         1.117199
 C         3.261550         0.646819         0.108641
 C         2.552133        -0.297018        -0.987239
 C         2.563232         0.319722        -2.340245
 C         2.262626         1.848668        -1.861915
 C         2.218198         1.709699        -0.323678
 O         1.907147         2.716000         0.506897
 H        -0.478296         1.000606         0.870752
 H        -0.330177         0.820793        -0.986524
 H        -0.398539        -0.609909         0.072792
 H         4.294755         0.436992         0.389981
 H         3.030385        -1.275560        -0.758177
 H         3.615345         0.309283        -2.801837
 H         1.846014        -0.067192        -3.046981
 H         2.945101         2.580386        -2.219057
 H         1.090181         1.939829        -1.994307
 H         1.814515         2.246218         1.380148
