19
Iteration:  1504charge 0 multiplicity 1
 C        -0.104186         0.016355         0.053052
 C         1.347567         0.270985        -0.061229
 O         2.227648         0.178381         1.126113
 C         3.208206         0.594957         0.116660
 C         2.550485        -0.334042        -0.955886
 C         2.493817         0.388244        -2.275686
 C         2.273000         1.856442        -1.798773
 C         2.327619         1.791286        -0.358787
 O         2.135057         2.930015         0.376976
 H        -0.593389         0.750973         0.725521
 H        -0.600572         0.045227        -0.997885
 H        -0.233190        -1.017925         0.551768
 H         4.213346         0.576007         0.466835
 H         2.568411        -1.426067        -0.788068
 H         3.431857         0.157465        -2.796158
 H         1.750822        -0.103397        -2.991333
 H         3.169009         2.410229        -2.238852
 H         1.315665         2.320981        -2.057863
 H         1.907494         2.693145         1.309890
