19
Iteration:   423
 C        -0.099023        -0.004372         0.004206
 C         1.360558         0.266717        -0.019777
 O         2.289952         0.062037         1.261543
 C         3.181249         0.622931         0.090364
 C         2.477424        -0.250880        -0.957255
 C         2.426790         0.408521        -2.293150
 C         2.455277         1.888593        -1.966857
 C         2.201784         1.718311        -0.273485
 O         2.101926         2.925093         0.368237
 H        -0.493787         0.738660         0.735404
 H        -0.575377         0.184476        -0.884775
 H        -0.347841        -1.003161         0.394688
 H         4.254289         0.778428         0.285399
 H         2.664698        -1.249119        -0.800871
 H         3.314601         0.137647        -3.010632
 H         1.551932         0.154644        -2.775523
 H         3.405039         2.551255        -2.051335
 H         1.668369         2.535048        -2.445718
 H         2.126096         2.722032         1.338491
