19
Iteration:   782charge 0 multiplicity 1
 C        -0.116974        -0.016116         0.078487
 C         1.361593         0.385113         0.041856
 O         2.248155         0.036004         1.195039
 C         3.160924         0.587568         0.106573
 C         2.450230        -0.295721        -0.949947
 C         2.522623         0.456595        -2.319551
 C         2.473663         1.971206        -1.826212
 C         2.182008         1.688456        -0.424939
 O         2.048658         2.861573         0.360927
 H        -0.745531         0.474328         0.852340
 H        -0.441904         0.125278        -0.919064
 H        -0.019731        -1.074011         0.293375
 H         4.236734         0.817749         0.273146
 H         2.614847        -1.283926        -0.743615
 H         3.439764         0.159313        -2.963298
 H         1.626332         0.228023        -2.863699
 H         3.426326         2.461677        -1.974940
 H         1.738169         2.547973        -2.354324
 H         2.844428         2.998324         0.900484
