19
Iteration:  2476
 C        -0.101194         0.303589         0.107028
 C         1.416089         0.363358        -0.033276
 O         2.290555         0.083766         1.151757
 C         3.280949         0.589857         0.067826
 C         2.512597        -0.345845        -0.976996
 C         2.609277         0.403606        -2.239845
 C         2.289870         1.904552        -1.831863
 C         2.171637         1.589973        -0.360675
 O         1.982106         2.760550         0.378736
 H        -0.567652         1.006286         0.826690
 H        -0.597989         0.489598        -0.833985
 H        -0.429600        -0.657981         0.426462
 H         4.380893         0.759051         0.233852
 H         2.836407        -1.359005        -1.127285
 H         3.686608         0.226613        -2.563487
 H         2.000861         0.121572        -3.039619
 H         3.205029         2.474500        -1.988557
 H         1.475277         2.313813        -2.471679
 H         1.383265         2.544530         1.133357
