19
Iteration:  3334charge 0 multiplicity 1
 C        -0.159152         0.301596         0.251311
 C         1.346875         0.284776        -0.076890
 O         2.305578         0.154792         1.145384
 C         3.234503         0.581784         0.013502
 C         2.488123        -0.329602        -0.911773
 C         2.767130         0.430860        -2.310871
 C         2.320124         1.866869        -1.905698
 C         2.163194         1.674953        -0.389471
 O         1.918471         2.700573         0.376971
 H        -0.233016         1.109459         0.949166
 H        -0.593660         0.447481        -0.766890
 H        -0.519005        -0.537052         0.886276
 H         4.316041         0.579931         0.236446
 H         2.919508        -1.371874        -0.919234
 H         3.864355         0.321579        -2.613414
 H         2.112073         0.053516        -3.134741
 H         3.195422         2.513536        -1.988687
 H         1.369355         2.165052        -2.494462
 H         1.933241         2.436388         1.310326
