19
Iteration:  1229charge 0 multiplicity 1
 C        -0.080814         0.263388         0.222067
 C         1.417245         0.414900        -0.039139
 O         2.287202         0.058426         1.098927
 C         3.214612         0.592004         0.134275
 C         2.521162        -0.323531        -0.954928
 C         2.703969         0.331161        -2.340273
 C         2.315395         1.831158        -1.937320
 C         2.192872         1.735528        -0.410021
 O         1.904900         2.778078         0.445058
 H        -0.433869         0.990483         0.910704
 H        -0.616246         0.434541        -0.751746
 H        -0.305821        -0.657166         0.632721
 H         4.267779         0.763410         0.334246
 H         2.483683        -1.459804        -0.894826
 H         3.683964         0.214802        -2.839490
 H         1.913948        -0.016038        -3.156545
 H         2.964198         2.711848        -2.336054
 H         1.251683         2.078912        -2.175871
 H         2.188753         2.558758         1.344072
