19
Iteration:  2630charge 0 multiplicity 1
 C        -0.086963         0.304815         0.116680
 C         1.436631         0.393440        -0.080799
 O         2.279123         0.057449         1.164364
 C         3.256946         0.530522         0.084496
 C         2.535280        -0.311725        -0.959982
 C         2.633376         0.445357        -2.304698
 C         2.291087         1.846449        -1.841217
 C         2.165723         1.643697        -0.375376
 O         1.901120         2.729429         0.406906
 H        -0.189296         1.260332         0.788797
 H        -0.521748         0.602550        -0.881432
 H        -0.516567        -0.594671         0.557982
 H         4.266752         0.937997         0.403657
 H         2.596649        -1.420994        -0.696429
 H         3.738913         0.422073        -2.623284
 H         2.017437         0.053090        -3.075411
 H         3.061711         2.526087        -2.190842
 H         1.382397         2.039939        -2.465211
 H         2.374012         2.486383         1.239991
