19
Iteration:   134charge 0 multiplicity 1
 C        -0.123705         0.319483         0.134417
 C         1.427696         0.297786        -0.067950
 O         2.289714         0.211234         1.199830
 C         3.247134         0.554746         0.087176
 C         2.481571        -0.360970        -0.936019
 C         2.675413         0.449713        -2.316576
 C         2.368974         1.915304        -1.906182
 C         2.302896         1.613008        -0.401404
 O         1.868114         2.678468         0.384234
 H        -0.385384         1.018103         0.828506
 H        -0.792599         0.528882        -0.735517
 H        -0.344154        -0.621581         0.567512
 H         4.285282         0.503752         0.393336
 H         2.635236        -1.499947        -0.893847
 H         3.636258         0.220761        -2.635175
 H         1.876894         0.234148        -3.108072
 H         2.872885         2.727823        -2.293313
 H         1.214276         1.966004        -2.048159
 H         1.805006         2.359171         1.323338
