19
Iteration:  3886
 C        -0.023597         0.305272        -0.033609
 C         1.459322         0.253702        -0.019671
 O         2.287015         0.125947         1.151432
 C         3.247001         0.568557         0.093918
 C         2.605727        -0.344645        -0.991680
 C         2.564771         0.485346        -2.345329
 C         2.181441         1.832088        -1.726799
 C         2.202282         1.621440        -0.303522
 O         1.923240         2.728720         0.442467
 H        -0.321188         0.972144         0.740967
 H        -0.199831         0.947674        -0.944135
 H        -0.746660        -0.586010        -0.189321
 H         4.309323         0.723511         0.395162
 H         2.829247        -1.383586        -0.816421
 H         3.458406         0.379463        -2.976713
 H         1.663060         0.082432        -3.002469
 H         3.006758         2.591714        -2.133085
 H         1.304163         2.316982        -2.089335
 H         2.372599         2.751003         1.306384
