19
Iteration:    77
 C        -0.121127         0.011874         0.025128
 C         1.413586         0.318449        -0.060230
 O         2.241510         0.143295         1.175707
 C         3.220761         0.576336         0.273019
 C         2.563718        -0.248388        -0.953951
 C         2.437016         0.398775        -2.320322
 C         2.307931         1.866529        -1.896766
 C         2.358927         1.743296        -0.366788
 O         2.060571         2.892367         0.344911
 H        -0.672420         0.695983         0.703940
 H        -0.523820         0.069290        -0.903921
 H        -0.381500        -1.033122         0.350203
 H         4.197381         0.556210         0.764837
 H         2.704938        -1.336021        -0.908257
 H         3.308347         0.226956        -2.941885
 H         1.595962        -0.049242        -2.857074
 H         3.251312         2.322286        -2.246014
 H         1.508669         2.602655        -2.075656
 H         1.898338         2.521370         1.248943
