19
Iteration:  2624
 C        -0.060212         0.343304         0.107831
 C         1.440230         0.367120        -0.058179
 O         2.270013         0.057973         1.180950
 C         3.202460         0.599768         0.112046
 C         2.518719        -0.318652        -0.973660
 C         2.679566         0.471376        -2.299839
 C         2.260223         1.786590        -1.850531
 C         2.215344         1.635733        -0.388625
 O         1.953154         2.717796         0.386359
 H        -0.401415         1.132008         0.754206
 H        -0.716859         0.423613        -0.767070
 H        -0.475870        -0.605676         0.479813
 H         4.187942         0.910486         0.408604
 H         2.641772        -1.390459        -0.998515
 H         3.680917         0.405290        -2.638267
 H         1.970907         0.142603        -3.124739
 H         2.929154         2.661260        -2.162523
 H         1.247008         2.053246        -2.209558
 H         2.176376         2.367298         1.260305
