19
Iteration:  2596
 C        -0.046882         0.122447         0.040240
 C         1.468123         0.398190        -0.067408
 O         2.201153         0.139976         1.160000
 C         3.256882         0.398742         0.083322
 C         2.538518        -0.361508        -0.924509
 C         2.613458         0.445771        -2.287179
 C         2.169541         1.841057        -1.887019
 C         2.215514         1.743455        -0.384497
 O         2.123783         2.882808         0.493539
 H        -0.474435         1.010085         0.589603
 H        -0.676548         0.220221        -0.856252
 H        -0.589486        -0.726332         0.563086
 H         4.302580         0.611107         0.466154
 H         2.500124        -1.468971        -0.919966
 H         3.725267         0.501075        -2.666363
 H         2.060125         0.095216        -3.104511
 H         2.824354         2.559395        -2.241654
 H         1.153938         2.087186        -2.241260
 H         1.289265         2.829796         0.951387
