19
Iteration:  2593charge 0 multiplicity 1
 C        -0.048156         0.118060         0.011018
 C         1.454880         0.424062        -0.051259
 O         2.207222         0.121956         1.163075
 C         3.263539         0.421203         0.092057
 C         2.519519        -0.373943        -0.926116
 C         2.609561         0.468922        -2.245902
 C         2.180059         1.806867        -1.906645
 C         2.210320         1.751799        -0.396951
 O         2.138370         2.884889         0.491478
 H        -0.500135         0.876950         0.600949
 H        -0.612606         0.191525        -0.941580
 H        -0.431673        -0.820024         0.658250
 H         4.288053         0.642284         0.426690
 H         2.400344        -1.420578        -1.005980
 H         3.650276         0.488124        -2.696812
 H         1.951134         0.149968        -3.109042
 H         2.899778         2.556509        -2.209964
 H         1.189571         2.081248        -2.182027
 H         1.255611         2.882427         0.944871
