19
Iteration:  2582
 C        -0.045869         0.108987        -0.018802
 C         1.395744         0.441846        -0.017404
 O         2.254167         0.086121         1.170365
 C         3.204195         0.543255         0.141671
 C         2.428845        -0.304380        -0.966908
 C         2.579091         0.399166        -2.244981
 C         2.233785         1.884778        -1.869218
 C         2.223712         1.697811        -0.337006
 O         2.177352         2.862139         0.439021
 H        -0.691958         0.699813         0.574321
 H        -0.332428        -0.072392        -1.066857
 H         0.210508        -0.963318         0.354699
 H         4.283385         0.500594         0.348454
 H         2.403642        -1.373866        -0.970966
 H         3.594461         0.293472        -2.721342
 H         1.815031        -0.049183        -2.939145
 H         2.913614         2.623402        -2.294034
 H         1.267157         2.124713        -2.271321
 H         1.291318         2.934167         0.864039
