19
Iteration:  4368charge 0 multiplicity 1
 C        -0.027566         0.208120         0.032230
 C         1.447242         0.294868         0.036950
 O         2.222770         0.130594         1.188638
 C         3.303426         0.582866         0.105312
 C         2.522746        -0.310833        -0.933262
 C         2.605904         0.454931        -2.341816
 C         2.237578         1.935629        -1.881195
 C         2.208760         1.604478        -0.363206
 O         1.981489         2.784148         0.376008
 H        -0.467006         1.066747         0.485322
 H        -0.592823         0.136827        -0.937616
 H        -0.538107        -0.555480         0.566373
 H         4.354815         0.476565         0.475708
 H         2.747328        -1.421533        -0.895447
 H         3.513865         0.115158        -2.765986
 H         1.773933        -0.002740        -2.903259
 H         2.955835         2.752029        -2.191446
 H         1.250611         2.244973        -2.138722
 H         2.044019         2.453650         1.278435
