19
Iteration:  3568
 C        -0.006879         0.131528        -0.122691
 C         1.441899         0.363229         0.015924
 O         2.280536         0.136669         1.168392
 C         3.237259         0.587458         0.048326
 C         2.464715        -0.278377        -0.900867
 C         2.431532         0.361351        -2.235629
 C         2.356155         1.858088        -1.888097
 C         2.200039         1.723780        -0.398473
 O         2.008238         2.847107         0.531386
 H        -0.869524         0.786834         0.197076
 H        -0.143467        -0.089720        -1.170665
 H        -0.146840        -0.878281         0.398414
 H         4.329437         0.631259         0.242471
 H         2.830396        -1.281301        -0.625824
 H         3.219067         0.135287        -2.953624
 H         1.461265        -0.012680        -2.686856
 H         3.363299         2.437576        -2.088102
 H         1.474880         2.344619        -2.203204
 H         2.248313         2.370892         1.345490
