19
Iteration:  1840charge 0 multiplicity 1
 C        -0.073652        -0.063393         0.079747
 C         1.358600         0.310498        -0.111531
 O         2.145856         0.136856         1.269754
 C         3.120299         0.593530         0.118885
 C         2.513925        -0.307682        -1.013334
 C         2.495974         0.472401        -2.358571
 C         2.372841         1.930297        -1.861999
 C         2.189816         1.664588        -0.345123
 O         2.254738         2.910873         0.397565
 H        -0.608297         0.582748         0.713454
 H        -0.457677        -0.109271        -0.959036
 H        -0.046299        -1.078588         0.575054
 H         4.229711         0.849304         0.447185
 H         2.739903        -1.399792        -0.964823
 H         3.366347         0.516828        -3.054579
 H         1.676653         0.013082        -2.838660
 H         3.169209         2.633311        -1.951658
 H         1.495210         2.516763        -2.221742
 H         2.177773         2.654421         1.349357
