19
Iteration:  4904
 C        -0.092475         0.300657         0.154897
 C         1.415667         0.340194        -0.181793
 O         2.303512         0.060007         1.134973
 C         3.201586         0.559090         0.102714
 C         2.633666        -0.369896        -0.974016
 C         2.612046         0.419553        -2.302676
 C         2.387066         1.855092        -1.863361
 C         2.117355         1.697386        -0.320024
 O         1.880234         2.814182         0.411968
 H        -0.152269         0.791200         1.194611
 H        -0.677903         0.876368        -0.520757
 H        -0.514256        -0.673941         0.369721
 H         4.304876         0.456425         0.520330
 H         2.909208        -1.487095        -0.864529
 H         3.479157         0.208571        -2.985194
 H         1.682179         0.027403        -2.752722
 H         3.250252         2.558955        -2.063245
 H         1.495728         2.323763        -2.482559
 H         1.867299         2.446706         1.306705
