19
Iteration:  3331charge 0 multiplicity 1
 C        -0.174138         0.305628         0.238615
 C         1.359419         0.294615        -0.072862
 O         2.313580         0.150633         1.153009
 C         3.233563         0.580796         0.029138
 C         2.487132        -0.312561        -0.917236
 C         2.759399         0.434922        -2.280317
 C         2.325631         1.893047        -1.905533
 C         2.180708         1.641166        -0.400844
 O         1.907554         2.683342         0.346968
 H        -0.262453         1.097851         0.959422
 H        -0.664488         0.504343        -0.695422
 H        -0.492618        -0.610178         0.888733
 H         4.366235         0.705941         0.155299
 H         2.849623        -1.364933        -0.967317
 H         3.832199         0.187656        -2.646774
 H         2.130972         0.006657        -3.079987
 H         3.126419         2.545385        -1.915117
 H         1.393177         2.269791        -2.414875
 H         2.001443         2.400742         1.287568
