19
Iteration:  2600
 C        -0.059291         0.148659         0.078683
 C         1.464877         0.354919        -0.080223
 O         2.202830         0.159040         1.155582
 C         3.251325         0.404530         0.096903
 C         2.549696        -0.346027        -0.945937
 C         2.642301         0.414008        -2.330585
 C         2.153020         1.884381        -1.859398
 C         2.222624         1.718560        -0.358519
 O         2.110096         2.871159         0.482962
 H        -0.404644         1.115557         0.586497
 H        -0.662654         0.251690        -0.841080
 H        -0.617434        -0.646491         0.461360
 H         4.254189         0.494954         0.452521
 H         2.633184        -1.468962        -0.821602
 H         3.661844         0.489498        -2.572424
 H         2.094857        -0.074064        -3.189815
 H         2.837055         2.708889        -2.346897
 H         1.122734         2.091267        -2.294103
 H         1.274704         2.747469         1.010444
