19
Iteration:  2746charge 0 multiplicity 1
 C        -0.080098        -0.053572        -0.020597
 C         1.384289         0.316323         0.022256
 O         2.212712         0.250459         1.202468
 C         3.238327         0.525492         0.073657
 C         2.361994        -0.303405        -0.926999
 C         2.624616         0.367523        -2.315125
 C         2.241179         1.934947        -1.854607
 C         2.247738         1.745186        -0.358826
 O         2.182654         2.883982         0.417474
 H        -0.713032         0.590230         0.515383
 H        -0.426072        -0.046351        -1.056388
 H        -0.282365        -1.146780         0.359357
 H         4.316354         0.553913         0.319313
 H         2.452291        -1.377917        -0.819207
 H         3.611880         0.286805        -2.768913
 H         1.835865         0.157007        -3.059406
 H         2.944844         2.878718        -2.084232
 H         1.224350         2.201735        -2.197742
 H         2.381879         2.512299         1.307564
