19
Iteration:  4043
 C        -0.012245         0.350443        -0.014135
 C         1.474812         0.290271        -0.093879
 O         2.294867         0.097388         1.162185
 C         3.229271         0.623976         0.100044
 C         2.540389        -0.338953        -0.981626
 C         2.558159         0.423252        -2.327411
 C         2.199267         1.831246        -1.833641
 C         2.261738         1.660953        -0.292278
 O         1.940251         2.718703         0.495236
 H        -0.368602         1.022386         0.833560
 H        -0.392121         0.806888        -0.958941
 H        -0.514342        -0.514016         0.198797
 H         4.241441         0.781537         0.551055
 H         2.753434        -1.449779        -1.009169
 H         3.534889         0.312336        -2.843021
 H         1.878239        -0.038353        -3.051397
 H         2.861846         2.633025        -2.112827
 H         1.284600         2.072887        -2.332136
 H         1.829700         2.357606         1.391855
