19
Iteration:  2578
 C        -0.015423         0.082262        -0.018821
 C         1.393715         0.439595        -0.022988
 O         2.266617         0.086257         1.173873
 C         3.169533         0.567182         0.139250
 C         2.408418        -0.256974        -0.952058
 C         2.561227         0.365152        -2.292876
 C         2.251864         1.918120        -1.838784
 C         2.243862         1.679831        -0.303370
 O         2.185206         2.854260         0.418276
 H        -0.827608         0.638826         0.547635
 H        -0.349147        -0.096085        -1.051456
 H         0.047136        -0.954906         0.269019
 H         4.214451         0.474826         0.363968
 H         2.511626        -1.377822        -0.834550
 H         3.533770         0.203237        -2.663759
 H         1.815993        -0.124052        -2.990563
 H         2.975472         2.699087        -2.302172
 H         1.255223         2.170788        -2.300872
 H         1.330683         2.923953         0.840138
