19
Iteration:  3795
 C        -0.102848        -0.149701         0.126319
 C         1.376344         0.391409        -0.044201
 O         2.122597         0.074196         1.136534
 C         3.184113         0.629684         0.061203
 C         2.433321        -0.264435        -1.017235
 C         2.552260         0.426045        -2.336457
 C         2.470559         1.938912        -1.788504
 C         2.229907         1.727981        -0.327509
 O         2.142505         2.918412         0.428592
 H        -0.669679         0.693302         0.614686
 H        -0.601305        -0.317706        -0.803213
 H        -0.102658        -1.116408         0.696638
 H         4.202540         0.767988         0.361220
 H         2.781097        -1.334983        -1.050246
 H         3.448760         0.292711        -3.031538
 H         1.681987         0.342422        -2.988554
 H         3.377949         2.458387        -2.125574
 H         1.564685         2.583543        -2.240509
 H         2.233563         2.497016         1.311182
