19
Iteration:  1597
 C        -0.116986         0.219028         0.025335
 C         1.449910         0.334761        -0.052842
 O         2.278432         0.168143         1.169964
 C         3.291358         0.515754         0.137832
 C         2.542055        -0.258385        -0.966724
 C         2.505897         0.290734        -2.322745
 C         2.354591         1.855058        -1.889360
 C         2.314081         1.695152        -0.321833
 O         1.894416         2.845671         0.443913
 H        -0.553905         0.806832         0.818917
 H        -0.736155         0.472548        -0.798561
 H        -0.366694        -0.744466         0.301609
 H         4.480383         0.476005         0.235470
 H         2.637719        -1.300092        -0.887488
 H         3.347050         0.130970        -3.018785
 H         1.632284        -0.067236        -2.815305
 H         3.132691         2.503514        -2.236164
 H         1.329751         2.089968        -2.268221
 H         2.127737         2.731107         1.400823
