19
Iteration:  1256
 C        -0.059945         0.018580         0.075189
 C         1.428769         0.330225        -0.051531
 O         2.206440         0.173764         1.193361
 C         3.234222         0.563500         0.114453
 C         2.505713        -0.347301        -0.914011
 C         2.483156         0.365549        -2.349203
 C         2.355738         1.926916        -1.863119
 C         2.167283         1.711986        -0.363315
 O         2.083034         2.886063         0.360038
 H        -0.420631         0.755453         0.885425
 H        -0.625203         0.178194        -0.826201
 H        -0.212714        -1.052456         0.546998
 H         4.369859         0.733805         0.296430
 H         2.565179        -1.405607        -0.920701
 H         3.471387         0.238818        -2.789820
 H         1.660522         0.093322        -2.938366
 H         3.248913         2.489085        -2.050077
 H         1.545791         2.543471        -2.278036
 H         2.269178         2.779526         1.304307
