19
Iteration:  3531
 C        -0.041592         0.317886         0.095248
 C         1.416223         0.287600        -0.075327
 O         2.265583         0.118518         1.174177
 C         3.214894         0.543641         0.164450
 C         2.594770        -0.376537        -0.948723
 C         2.644508         0.471676        -2.276346
 C         2.188386         1.878897        -1.856730
 C         2.265945         1.613099        -0.364995
 O         1.945393         2.805830         0.353682
 H        -0.387817         1.162412         0.734730
 H        -0.475574         0.370683        -0.964540
 H        -0.313958        -0.638891         0.440406
 H         4.233456         0.322744         0.300087
 H         2.779348        -1.422952        -1.178248
 H         3.675595         0.477779        -2.769602
 H         1.946643        -0.108808        -2.928358
 H         2.772985         2.663547        -2.252975
 H         1.136384         2.217988        -2.059374
 H         1.746985         2.471907         1.251331
