19
Iteration:  1140charge 0 multiplicity 1
 C        -0.092965        -0.021514        -0.050987
 C         1.418469         0.343202        -0.024992
 O         2.227973         0.214819         1.270430
 C         3.236992         0.630281         0.099319
 C         2.552332        -0.283621        -0.958441
 C         2.415387         0.382734        -2.335346
 C         2.328022         1.850782        -1.842926
 C         2.240365         1.674887        -0.326784
 O         2.144418         2.882430         0.390944
 H        -0.729958         0.539382         0.663072
 H        -0.604509         0.032219        -1.004780
 H        -0.227607        -1.046367         0.236405
 H         4.263128         0.569508         0.347745
 H         2.650964        -1.389008        -0.797087
 H         3.259526         0.131738        -3.058541
 H         1.391918         0.208263        -2.865831
 H         3.266005         2.474116        -2.066587
 H         1.508089         2.569093        -2.178518
 H         1.973175         2.583706         1.296169
