19
Iteration:  3885
 C        -0.020256         0.316977        -0.040451
 C         1.445582         0.253014        -0.031400
 O         2.293068         0.127091         1.152695
 C         3.255792         0.562770         0.102787
 C         2.606830        -0.352668        -0.987947
 C         2.568096         0.485758        -2.347078
 C         2.176021         1.836424        -1.736122
 C         2.200781         1.609018        -0.299737
 O         1.920840         2.735226         0.450147
 H        -0.297710         0.964915         0.745432
 H        -0.194305         0.954450        -0.912256
 H        -0.753698        -0.598366        -0.167871
 H         4.298737         0.732022         0.380674
 H         2.873888        -1.388952        -0.822932
 H         3.453251         0.356365        -2.999188
 H         1.674415         0.067247        -2.980323
 H         2.980425         2.608452        -2.138325
 H         1.275165         2.337553        -2.110893
 H         2.356580         2.764903         1.312717
