19
Iteration:  4235charge 0 multiplicity 1
 C        -0.134107         0.253435         0.122669
 C         1.443553         0.303561        -0.035102
 O         2.336955         0.151201         1.205195
 C         3.213305         0.505306         0.133681
 C         2.474773        -0.363441        -1.084641
 C         2.641171         0.482330        -2.335046
 C         2.277768         1.899927        -1.809798
 C         2.219779         1.591843        -0.323801
 O         1.939494         2.815105         0.363020
 H        -0.422705         0.964817         0.823106
 H        -0.596047         0.558015        -0.864673
 H        -0.261805        -0.841219         0.449869
 H         4.290630         0.565854         0.389657
 H         2.707497        -1.388117        -1.261589
 H         3.703757         0.386582        -2.558511
 H         1.985203         0.039356        -3.094986
 H         3.072276         2.553384        -2.119560
 H         1.344339         2.073644        -2.338580
 H         2.002007         2.692406         1.337704
