19
Iteration:  4389charge 0 multiplicity 1
 C        -0.012736         0.283982         0.140272
 C         1.426775         0.346113        -0.163317
 O         2.299184         0.213627         1.195258
 C         3.122430         0.516384         0.136862
 C         2.609131        -0.363736        -1.017111
 C         2.626434         0.446894        -2.312520
 C         2.234374         1.854504        -1.846817
 C         2.252232         1.603304        -0.356155
 O         1.923179         2.747839         0.419213
 H        -0.418660         1.038798         0.711780
 H        -0.746879         0.157870        -0.716979
 H        -0.210439        -0.650660         0.642713
 H         4.185991         0.600876         0.466704
 H         2.562994        -1.468751        -0.881971
 H         3.641740         0.441475        -2.721827
 H         2.010308         0.200872        -3.187751
 H         3.097276         2.446321        -2.212473
 H         1.376385         2.343231        -2.357659
 H         1.726449         2.398941         1.319356
