19
Iteration:  1011
 C        -0.035175         0.406424         0.058413
 C         1.452932         0.323057        -0.030954
 O         2.299668         0.063622         1.133075
 C         3.237450         0.623506         0.050321
 C         2.591984        -0.346884        -0.976580
 C         2.595461         0.334146        -2.263952
 C         2.192718         1.803991        -1.921275
 C         2.242263         1.722217        -0.358762
 O         1.904188         2.745317         0.532935
 H        -0.566717         1.196559         0.670125
 H        -0.484068         0.540269        -1.019766
 H        -0.536238        -0.505344         0.348542
 H         4.337994         0.656569         0.448483
 H         2.943083        -1.408564        -0.927970
 H         3.571833         0.530984        -2.680657
 H         1.988272        -0.106642        -3.090593
 H         3.005020         2.422820        -2.347839
 H         1.268017         2.075936        -2.313744
 H         1.765415         2.394345         1.443242
