19
Iteration:  2569charge 0 multiplicity 1
 C        -0.037424        -0.042968        -0.043767
 C         1.389742         0.407567        -0.011307
 O         2.268127         0.099727         1.190766
 C         3.158361         0.580964         0.122798
 C         2.410557        -0.215883        -0.897958
 C         2.491236         0.340403        -2.383555
 C         2.308531         1.905236        -1.823664
 C         2.273498         1.719470        -0.297188
 O         2.200552         2.874948         0.396672
 H        -0.740123         0.619646         0.512145
 H        -0.375468         0.154673        -1.087552
 H        -0.408757        -1.027328         0.352348
 H         4.186591         0.659577         0.352576
 H         2.641598        -1.236510        -0.572039
 H         3.473891         0.101814        -2.685322
 H         1.779126        -0.028431        -3.247177
 H         3.188182         2.672740        -2.005965
 H         1.330584         2.380277        -2.027042
 H         1.387190         2.915322         0.896342
