19
Iteration:  1894charge 0 multiplicity 1
 C        -0.013321         0.267578         0.102429
 C         1.443575         0.331399        -0.029868
 O         2.340615         0.167392         1.146102
 C         3.254322         0.442168         0.135145
 C         2.451815        -0.306690        -1.030089
 C         2.581078         0.455030        -2.326906
 C         2.409275         1.874779        -1.842319
 C         2.157061         1.643779        -0.368660
 O         1.849715         2.779824         0.426468
 H        -0.318452         1.073992         0.759041
 H        -0.500710         0.452187        -0.951442
 H        -0.309657        -0.791494         0.429259
 H         4.345299         0.238838         0.485092
 H         2.377312        -1.416275        -0.991807
 H         3.473240         0.404158        -3.043301
 H         1.742325         0.071810        -2.874979
 H         3.150465         2.637087        -1.963019
 H         1.430898         2.309551        -2.175051
 H         2.043074         2.509836         1.355880
