19
Iteration:   719
 C        -0.013404         0.116598         0.001779
 C         1.437557         0.370588        -0.035359
 O         2.275390         0.117554         1.169293
 C         3.223888         0.612327         0.126552
 C         2.455017        -0.261281        -0.967332
 C         2.478318         0.346972        -2.324906
 C         2.326240         1.824769        -1.889471
 C         2.191214         1.736022        -0.297991
 O         2.063704         2.833159         0.479689
 H        -0.590529         0.813586         0.642757
 H        -0.457195         0.233444        -1.067375
 H        -0.299960        -0.882521         0.288556
 H         4.324849         0.706554         0.367676
 H         2.566669        -1.338013        -0.905596
 H         3.477509         0.178969        -2.803781
 H         1.797333        -0.012905        -3.044621
 H         3.283572         2.348430        -2.182657
 H         1.578396         2.483758        -2.407436
 H         1.595916         2.450636         1.244529
