19
Iteration:   597charge 0 multiplicity 1
 C        -0.078652        -0.035520         0.114110
 C         1.320797         0.458019        -0.110905
 O         2.234209         0.186516         1.152123
 C         3.182454         0.541264         0.095559
 C         2.507273        -0.347138        -0.971752
 C         2.420403         0.420273        -2.267883
 C         2.469708         1.886870        -1.911124
 C         2.296532         1.706709        -0.303422
 O         2.025575         2.882576         0.427066
 H        -0.773308         0.387731         0.922027
 H        -0.500917         0.036492        -0.869570
 H         0.028478        -1.161710         0.242856
 H         4.273195         0.525097         0.282510
 H         2.625107        -1.311127        -0.833573
 H         3.427466         0.300928        -2.854992
 H         1.643884         0.191260        -2.884403
 H         3.522282         2.242820        -2.045801
 H         1.768291         2.562122        -2.454299
 H         2.286434         2.705782         1.362054
