19
Iteration:  2042
 C        -0.014961         0.066289         0.044629
 C         1.420470         0.364347         0.029483
 O         2.248652         0.204455         1.248693
 C         3.207335         0.485986         0.002013
 C         2.415341        -0.301648        -0.992713
 C         2.482124         0.476846        -2.381641
 C         2.477190         1.924440        -1.798640
 C         2.185407         1.688700        -0.354215
 O         1.980398         2.778353         0.419673
 H        -0.483301         0.818309         0.739906
 H        -0.395530         0.136711        -0.932891
 H        -0.081436        -0.880230         0.530463
 H         4.267341         0.438060         0.233924
 H         2.608339        -1.466475        -1.229477
 H         3.282593         0.136845        -2.971172
 H         1.535738         0.147050        -2.947588
 H         3.475345         2.479301        -1.913847
 H         1.701070         2.497182        -2.256588
 H         2.230502         2.654717         1.338525
