19
Iteration:   464charge 0 multiplicity 1
 C         0.009544         0.241747         0.099444
 C         1.508179         0.304675        -0.045896
 O         2.191599         0.142301         1.242651
 C         3.265233         0.481559         0.037335
 C         2.463652        -0.361068        -0.953421
 C         2.623190         0.404516        -2.318153
 C         2.283814         1.946396        -1.837083
 C         2.227848         1.633021        -0.346381
 O         1.917012         2.839097         0.365244
 H        -0.221968         1.060562         0.778349
 H        -0.564070         0.493310        -0.814054
 H        -0.216251        -0.774894         0.568880
 H         4.360922         0.441871         0.181323
 H         2.487054        -1.373516        -1.145004
 H         3.630447         0.108818        -2.812658
 H         1.884036        -0.019702        -3.002468
 H         3.026078         2.626711        -2.259908
 H         1.320023         2.334640        -2.309390
 H         1.860993         2.730880         1.330185
