19
Iteration:  2762charge 0 multiplicity 1
 C        -0.115420         0.055691         0.017583
 C         1.360005         0.375692        -0.070262
 O         2.289446         0.206405         1.223282
 C         3.162507         0.574699         0.139840
 C         2.541419        -0.334026        -1.012168
 C         2.523372         0.456405        -2.313463
 C         2.240082         1.830217        -1.871236
 C         2.266033         1.687026        -0.346480
 O         2.144005         2.846872         0.434396
 H        -0.693297         0.893262         0.572825
 H        -0.570086        -0.107148        -0.994767
 H        -0.252323        -0.874936         0.475123
 H         4.273915         0.500544         0.386755
 H         2.725275        -1.455560        -0.921672
 H         3.653148         0.396527        -2.533682
 H         2.074798        -0.077646        -3.145642
 H         2.998915         2.382156        -2.266730
 H         1.234176         2.271455        -2.084102
 H         1.774126         2.620324         1.333605
