19
Iteration:   538charge 0 multiplicity 1
 C        -0.102548         0.103250        -0.023700
 C         1.449245         0.422064        -0.050646
 O         2.283018         0.160622         1.238193
 C         3.267551         0.539710         0.130266
 C         2.515530        -0.253228        -0.940381
 C         2.487697         0.424781        -2.274652
 C         2.272624         1.905498        -1.815119
 C         2.277058         1.641405        -0.377310
 O         2.055268         2.770505         0.354374
 H        -0.675946         0.827417         0.535568
 H        -0.470860         0.254953        -1.084641
 H        -0.342558        -0.928852         0.320587
 H         4.306234         0.507062         0.448230
 H         2.461657        -1.442710        -1.009374
 H         3.335339         0.153045        -2.811161
 H         1.573749         0.087240        -2.897023
 H         2.907598         2.729715        -2.013712
 H         1.284632         2.146434        -2.170501
 H         2.095374         2.511840         1.290314
