19
Iteration:  2561charge 0 multiplicity 1
 C        -0.133818        -0.092623        -0.067321
 C         1.365749         0.334444         0.031867
 O         2.253721         0.123248         1.204606
 C         3.220638         0.618119         0.129196
 C         2.449475        -0.291507        -0.914313
 C         2.441640         0.391235        -2.360697
 C         2.371618         1.857330        -1.825943
 C         2.246852         1.738363        -0.342733
 O         2.205810         2.947782         0.407110
 H        -0.499600         0.677888         0.545876
 H        -0.391052         0.162085        -1.101924
 H        -0.347894        -1.177225         0.287663
 H         4.300690         0.793583         0.321754
 H         2.523318        -1.350336        -0.773450
 H         3.462619         0.223280        -2.869763
 H         1.651817         0.187375        -3.095325
 H         3.248734         2.423452        -1.990358
 H         1.561245         2.514631        -2.066908
 H         1.483580         2.888981         1.027713
