19
Iteration:  1812
 C        -0.066251        -0.089517        -0.045297
 C         1.378248         0.424515        -0.087206
 O         2.244900         0.191621         1.175903
 C         3.216684         0.513617         0.110771
 C         2.397490        -0.298784        -0.926005
 C         2.475609         0.432649        -2.239826
 C         2.300310         1.922757        -1.874986
 C         2.314334         1.709032        -0.350570
 O         2.154738         2.892332         0.456361
 H        -0.779712         0.555656         0.589533
 H        -0.260686         0.029910        -1.078709
 H        -0.055574        -1.144253         0.269692
 H         4.221385         0.525505         0.377701
 H         2.429659        -1.377883        -0.872664
 H         3.373042         0.398796        -2.792415
 H         1.625216        -0.089645        -2.834368
 H         3.101583         2.707110        -2.168478
 H         1.292408         2.258984        -2.159564
 H         2.350145         2.572466         1.381218
