19
Iteration:  3117charge 0 multiplicity 1
 C        -0.020414         0.131476         0.039665
 C         1.430120         0.349751        -0.009467
 O         2.274789         0.184828         1.194059
 C         3.250385         0.607327         0.139852
 C         2.566957        -0.254780        -0.918173
 C         2.470212         0.351081        -2.339824
 C         2.345076         1.866201        -1.839007
 C         2.170131         1.638653        -0.373608
 O         2.019193         2.775217         0.353821
 H        -0.605727         0.654705         0.804237
 H        -0.515047         0.435317        -0.910102
 H        -0.446221        -0.886067         0.138229
 H         4.253700         0.891408         0.412360
 H         2.856888        -1.348195        -0.851140
 H         3.194888         0.285844        -3.147394
 H         1.563108        -0.071782        -2.931098
 H         3.205717         2.590340        -1.795590
 H         1.532373         2.466678        -2.188128
 H         1.598849         2.486286         1.178770
