19
Iteration:  3746charge 0 multiplicity 1
 C        -0.049397         0.043673        -0.047747
 C         1.429819         0.288663        -0.012308
 O         2.250312         0.185499         1.198497
 C         3.188529         0.571876         0.095259
 C         2.497831        -0.296176        -0.923837
 C         2.431068         0.494811        -2.349512
 C         2.375945         1.912594        -1.748950
 C         2.262587         1.660589        -0.296232
 O         2.064085         2.823078         0.385546
 H        -0.698370         0.692212         0.478663
 H        -0.346831         0.029087        -1.155715
 H        -0.224309        -1.042069         0.165237
 H         4.294747         0.509992         0.344806
 H         2.545012        -1.371833        -0.847435
 H         3.239835         0.308644        -3.011109
 H         1.540720         0.274671        -2.987321
 H         3.203757         2.513359        -2.230567
 H         1.562699         2.526652        -2.145254
 H         2.103843         2.456450         1.319439
