19
Iteration:  2485
 C        -0.116133         0.255039         0.093019
 C         1.412239         0.315155        -0.068966
 O         2.304004         0.088528         1.166951
 C         3.306647         0.525945         0.011090
 C         2.491915        -0.341975        -0.899138
 C         2.588993         0.441470        -2.245697
 C         2.387507         1.892261        -1.877143
 C         2.134681         1.705699        -0.356961
 O         1.930095         2.784343         0.385582
 H        -0.334175         0.934945         0.859138
 H        -0.564125         0.439064        -0.881068
 H        -0.373483        -0.815029         0.358561
 H         4.383660         0.724133         0.198901
 H         2.467304        -1.388399        -0.692006
 H         3.570683         0.257958        -2.799553
 H         1.809253         0.111684        -2.861147
 H         3.237825         2.479293        -1.890000
 H         1.667943         2.402914        -2.484557
 H         1.803055         2.503785         1.343185
