19
Iteration:   722
 C        -0.009465         0.100896         0.012052
 C         1.430499         0.370356        -0.030404
 O         2.256425         0.120733         1.139678
 C         3.256084         0.607711         0.146008
 C         2.436537        -0.236888        -0.953678
 C         2.480312         0.354461        -2.327264
 C         2.334846         1.833717        -1.910635
 C         2.187359         1.729118        -0.300719
 O         2.071705         2.829400         0.485955
 H        -0.575052         0.776908         0.623709
 H        -0.441797         0.236056        -1.039585
 H        -0.234906        -0.931462         0.296774
 H         4.321417         0.758798         0.365681
 H         2.558765        -1.393257        -0.755985
 H         3.434306         0.180523        -2.786962
 H         1.710854        -0.074348        -3.118840
 H         3.325856         2.273817        -2.189580
 H         1.602653         2.537551        -2.392467
 H         1.541852         2.467171         1.236760
