19
Iteration:  3230
 C        -0.029389        -0.047442        -0.080046
 C         1.376694         0.344771        -0.025882
 O         2.238366         0.231927         1.174983
 C         3.189265         0.582229         0.140271
 C         2.450962        -0.285550        -0.890910
 C         2.515435         0.342424        -2.241781
 C         2.219541         1.899168        -1.891110
 C         2.274629         1.699695        -0.378102
 O         2.170125         2.916365         0.433518
 H        -0.679721         0.590777         0.614416
 H        -0.405332        -0.038659        -1.111443
 H         0.153582        -1.037940         0.271195
 H         4.250290         0.552110         0.460282
 H         2.449333        -1.342565        -0.774343
 H         3.393253         0.298181        -2.933754
 H         1.710861        -0.084710        -2.880562
 H         2.876739         2.671099        -2.278890
 H         1.270131         2.189712        -2.157409
 H         2.367665         2.558421         1.336744
