19
Iteration:   972charge 0 multiplicity 1
 C        -0.090528         0.033465         0.009583
 C         1.403040         0.380386        -0.018376
 O         2.255444         0.210637         1.219558
 C         3.206355         0.498814         0.134340
 C         2.500473        -0.360039        -0.958739
 C         2.455265         0.489094        -2.269761
 C         2.346509         1.936760        -1.877142
 C         2.281486         1.678659        -0.386646
 O         2.040753         2.830361         0.390930
 H        -0.600200         0.622884         0.758915
 H        -0.460573         0.240097        -1.008849
 H        -0.193067        -1.028492         0.308954
 H         4.285652         0.460826         0.394183
 H         2.687355        -1.473417        -0.992561
 H         3.562402         0.221416        -2.703928
 H         1.744992         0.115135        -3.016219
 H         3.203300         2.481428        -2.301438
 H         1.373360         2.489074        -2.211418
 H         2.309343         2.478669         1.277309
