19
Iteration:   891
 C        -0.037103         0.107268         0.055379
 C         1.427280         0.430022        -0.091867
 O         2.259735         0.131627         1.168506
 C         3.188369         0.519261         0.184515
 C         2.499048        -0.388550        -0.986346
 C         2.507510         0.402171        -2.312648
 C         2.333228         1.997182        -1.870021
 C         2.252586         1.678080        -0.350412
 O         1.982763         2.818016         0.423708
 H        -0.584384         0.761428         0.739542
 H        -0.601355         0.117274        -0.854851
 H        -0.087629        -0.883989         0.435743
 H         4.270638         0.592668         0.452010
 H         2.472502        -1.436218        -0.838255
 H         3.527591         0.316128        -2.836495
 H         1.731251        -0.001804        -2.975739
 H         3.268805         2.312815        -2.249300
 H         1.545418         2.512845        -2.322053
 H         2.408030         2.714473         1.299899
