19
Iteration:  4764
 C        -0.031122         0.270968         0.077024
 C         1.386372         0.390068        -0.073854
 O         2.389888         0.116986         1.158294
 C         3.255393         0.490516         0.091288
 C         2.421769        -0.323810        -0.924421
 C         2.582793         0.409480        -2.285079
 C         2.409430         1.908829        -1.875513
 C         2.199577         1.684195        -0.427775
 O         1.839676         2.766819         0.446021
 H        -0.635691         1.132386         0.546156
 H        -0.579843         0.141493        -0.878430
 H        -0.243918        -0.619741         0.800894
 H         4.333320         0.304133         0.394430
 H         2.556603        -1.424751        -0.890186
 H         3.643489         0.288484        -2.549613
 H         1.909558         0.005501        -3.083338
 H         3.350206         2.566160        -2.187679
 H         1.514677         2.320970        -2.262713
 H         1.672710         2.325414         1.328124
