19
Iteration:  1556charge 0 multiplicity 1
 C        -0.135812         0.314021         0.231800
 C         1.339895         0.223874        -0.095892
 O         2.313643         0.178204         1.142272
 C         3.256999         0.585597         0.002540
 C         2.512019        -0.358037        -0.962863
 C         2.687862         0.444202        -2.273285
 C         2.340936         1.860383        -1.887094
 C         2.169191         1.621731        -0.348771
 O         1.941754         2.758144         0.369132
 H        -0.101069         1.076998         0.971116
 H        -0.676009         0.575835        -0.782644
 H        -0.563272        -0.562385         0.708488
 H         4.258151         0.534387         0.312892
 H         2.821839        -1.386258        -1.009230
 H         3.763779         0.164891        -2.424832
 H         2.057088         0.099827        -3.057095
 H         3.130819         2.590878        -2.104981
 H         1.344886         2.132715        -2.224693
 H         1.707833         2.629215         1.293385
