19
Iteration:  3923charge 0 multiplicity 1
 C        -0.086165        -0.056876         0.034351
 C         1.396896         0.419502        -0.114961
 O         2.296111         0.108829         1.126784
 C         3.194961         0.454088         0.104361
 C         2.493646        -0.286533        -0.967662
 C         2.536919         0.414877        -2.313787
 C         2.381273         1.936392        -1.843522
 C         2.233688         1.792487        -0.341317
 O         2.065977         2.908835         0.522495
 H        -0.650831         0.574699         0.844998
 H        -0.618270         0.210883        -0.952068
 H        -0.224304        -1.026856         0.395435
 H         4.270333         0.350624         0.432632
 H         2.241668        -1.371128        -0.800885
 H         3.399330         0.355004        -2.999569
 H         1.685196         0.209996        -2.934693
 H         3.214054         2.554913        -2.067035
 H         1.498063         2.377001        -2.351327
 H         1.472085         2.542706         1.224899
