19
Iteration:  1230charge 0 multiplicity 1
 C        -0.083256         0.258305         0.222881
 C         1.408675         0.419390        -0.035417
 O         2.287989         0.061772         1.096483
 C         3.205285         0.595116         0.139078
 C         2.522900        -0.323715        -0.962228
 C         2.705428         0.331568        -2.347915
 C         2.318255         1.825260        -1.927233
 C         2.198441         1.732721        -0.412607
 O         1.905834         2.785840         0.448685
 H        -0.439088         0.968094         0.903431
 H        -0.612366         0.427317        -0.773646
 H        -0.283551        -0.686185         0.633411
 H         4.302186         0.743213         0.339354
 H         2.497016        -1.450915        -0.911112
 H         3.649026         0.236038        -2.839994
 H         1.894025        -0.029744        -3.110491
 H         2.970706         2.682920        -2.358612
 H         1.277497         2.067198        -2.188121
 H         2.219124         2.556517         1.331602
