19
Iteration:  2492
 C        -0.069202         0.178275         0.071495
 C         1.415651         0.336989        -0.053604
 O         2.320433         0.111065         1.167652
 C         3.228839         0.511932         0.038427
 C         2.491719        -0.327985        -0.895309
 C         2.571281         0.415361        -2.295733
 C         2.457317         1.892255        -1.867017
 C         2.156704         1.708150        -0.395357
 O         1.885433         2.830948         0.424691
 H        -0.343441         0.915659         0.860682
 H        -0.584633         0.555986        -0.856528
 H        -0.434991        -0.842028         0.421805
 H         4.289615         0.510916         0.236682
 H         2.382155        -1.426033        -0.654267
 H         3.421425         0.254219        -2.914234
 H         1.634759         0.043764        -2.900872
 H         3.400807         2.541486        -1.976147
 H         1.646416         2.453260        -2.361624
 H         2.150367         2.482432         1.299203
