19
Iteration:  1190
 C        -0.076883         0.368938         0.154361
 C         1.435071         0.336183        -0.013737
 O         2.338236         0.187242         1.187516
 C         3.275234         0.479845         0.073357
 C         2.562021        -0.388087        -1.017739
 C         2.658453         0.422132        -2.366470
 C         2.228607         1.883502        -1.827421
 C         2.226648         1.555531        -0.341630
 O         1.883941         2.759092         0.359840
 H        -0.380643         1.305233         0.690716
 H        -0.409663         0.542748        -0.896490
 H        -0.699635        -0.567174         0.467563
 H         4.280598         0.695006         0.543315
 H         2.553413        -1.435604        -0.893353
 H         3.708408         0.259049        -2.650433
 H         1.977056         0.162260        -3.092797
 H         2.688903         2.789855        -2.061329
 H         1.206158         1.934899        -2.205332
 H         1.701635         2.413227         1.277955
