19
Iteration:  1404charge 0 multiplicity 1
 C        -0.033429         0.284058         0.192269
 C         1.398611         0.253803        -0.048469
 O         2.234878         0.137160         1.177921
 C         3.231303         0.599447         0.064093
 C         2.534924        -0.379833        -1.023704
 C         2.695911         0.429679        -2.305282
 C         2.277989         1.816248        -1.836269
 C         2.163671         1.624652        -0.365786
 O         1.941577         2.813323         0.344129
 H        -0.053207         1.134231         0.885887
 H        -0.768532         0.669779        -0.651374
 H        -0.480151        -0.543715         0.730479
 H         4.233071         0.717795         0.190346
 H         2.806674        -1.407354        -0.823945
 H         3.666281         0.417157        -2.902446
 H         1.870823        -0.055703        -2.976288
 H         2.972961         2.684165        -2.055705
 H         1.322394         2.164366        -2.255014
 H         2.260362         2.610275         1.247350
