19
Iteration:   162
 C        -0.051499         0.236147         0.088932
 C         1.454461         0.340425        -0.063048
 O         2.212934         0.133038         1.092705
 C         3.262635         0.557570         0.171873
 C         2.573022        -0.321229        -0.939764
 C         2.589907         0.351374        -2.338260
 C         2.273938         1.824080        -1.972210
 C         2.114727         1.678043        -0.386167
 O         1.999223         2.852175         0.511579
 H        -0.354142         1.102307         0.894008
 H        -0.629094         0.439441        -0.808027
 H        -0.163139        -0.822821         0.587866
 H         4.240854         0.557658         0.694292
 H         2.542036        -1.384541        -0.874056
 H         3.710409         0.258076        -2.660762
 H         1.952214        -0.083649        -3.077190
 H         3.163823         2.552785        -2.271065
 H         1.441134         2.205295        -2.481437
 H         1.976983         2.558122         1.456597
