19
Iteration:  3460charge 0 multiplicity 1
 C        -0.028975         0.058768         0.150156
 C         1.424728         0.377154        -0.072132
 O         2.214545         0.257719         1.205047
 C         3.144643         0.555949         0.157973
 C         2.521245        -0.323476        -1.035485
 C         2.511515         0.404146        -2.328883
 C         2.379738         1.897160        -1.822080
 C         2.203589         1.659957        -0.379155
 O         2.045224         2.776267         0.341066
 H        -0.464099         0.594411         0.992972
 H        -0.495730         0.378673        -0.757184
 H        -0.152704        -1.071149         0.119633
 H         4.215509         0.685476         0.538398
 H         2.646652        -1.423519        -0.920272
 H         3.446119         0.295892        -2.846147
 H         1.632740         0.052091        -2.885431
 H         3.420288         2.366329        -2.055694
 H         1.747028         2.571284        -2.374908
 H         1.852926         2.596908         1.272916
