19
Iteration:  1768charge 0 multiplicity 1
 C        -0.031825         0.305477        -0.000012
 C         1.453134         0.260085        -0.036737
 O         2.278122         0.101655         1.181518
 C         3.227655         0.584033         0.090623
 C         2.600222        -0.357312        -0.965077
 C         2.503229         0.385746        -2.225285
 C         2.280750         1.901861        -1.854915
 C         2.239194         1.712635        -0.365519
 O         1.951624         2.743522         0.390603
 H        -0.430447         0.929431         0.877955
 H        -0.435052         0.591970        -0.941760
 H        -0.505243        -0.662003         0.273235
 H         4.186894         0.838049         0.317072
 H         2.794539        -1.415222        -0.881182
 H         3.358588         0.267317        -2.834079
 H         1.587007         0.107055        -2.851433
 H         3.063247         2.629702        -2.159339
 H         1.339209         2.395067        -2.133968
 H         1.985753         2.421338         1.330459
