19
Iteration:  4336charge 0 multiplicity 1
 C        -0.066236         0.054563        -0.164872
 C         1.401170         0.369437        -0.093519
 O         2.381151         0.113286         1.282249
 C         3.230775         0.612349         0.102425
 C         2.447296        -0.247345        -0.918353
 C         2.461314         0.336439        -2.325860
 C         2.293088         1.846133        -1.853167
 C         2.202816         1.651104        -0.300414
 O         2.053179         2.948922         0.476648
 H        -0.549201         0.805754         0.539268
 H        -0.698638         0.008991        -1.154614
 H        -0.061515        -0.908401         0.343525
 H         4.324515         0.628676         0.335934
 H         2.499441        -1.389142        -0.862895
 H         3.285547        -0.033298        -2.845134
 H         1.632998         0.020054        -3.030981
 H         3.218640         2.509831        -2.169686
 H         1.554001         2.419088        -2.213640
 H         2.091578         2.620014         1.435947
