19
Iteration:   217charge 0 multiplicity 1
 C         0.019312        -0.078725        -0.050210
 C         1.428628         0.416808        -0.006258
 O         2.216750         0.175989         1.276454
 C         3.178992         0.423224         0.180331
 C         2.478955        -0.316990        -0.951618
 C         2.410394         0.397986        -2.303247
 C         2.373313         1.924126        -1.894257
 C         2.225140         1.794986        -0.372725
 O         2.115642         2.958497         0.386377
 H        -0.627734         0.644839         0.632901
 H        -0.156737         0.029777        -1.087743
 H        -0.000472        -1.210150         0.199359
 H         4.254499         0.354562         0.402927
 H         2.349008        -1.392959        -0.928686
 H         3.171443         0.102046        -3.106458
 H         1.469659         0.069535        -2.757754
 H         3.233347         2.552895        -2.332355
 H         1.511866         2.407040        -2.297487
 H         1.988565         2.706732         1.321658
