19
Iteration:  2158
 C        -0.072314        -0.003420         0.091152
 C         1.358935         0.349778        -0.089787
 O         2.205341         0.120981         1.124192
 C         3.241645         0.566520        -0.029967
 C         2.468817        -0.318976        -0.891753
 C         2.525939         0.368925        -2.290204
 C         2.394964         1.970152        -1.872639
 C         2.224933         1.728776        -0.299191
 O         2.079523         2.910472         0.484961
 H        -0.579745         0.717512         0.819112
 H        -0.578017         0.164073        -0.885525
 H        -0.119088        -1.110609         0.408500
 H         4.348384         0.584713         0.196636
 H         2.534228        -1.327848        -0.906505
 H         3.494395         0.109715        -2.894663
 H         1.683181         0.106470        -2.918310
 H         3.336848         2.419457        -2.068664
 H         1.551494         2.561737        -2.390966
 H         1.940330         2.478913         1.352991
