19
Iteration:  2790
 C         0.021388         0.274202         0.099360
 C         1.450960         0.327817        -0.022380
 O         2.230100         0.061616         1.140440
 C         3.255745         0.642905         0.108380
 C         2.575170        -0.331369        -1.002424
 C         2.557122         0.368295        -2.303962
 C         2.287793         1.876679        -1.862042
 C         2.206157         1.717317        -0.366519
 O         1.896482         2.784301         0.404046
 H        -0.289840         1.206159         0.497703
 H        -0.524384         0.178133        -0.831120
 H        -0.455739        -0.570044         0.714960
 H         4.226985         0.285716         0.442846
 H         2.784243        -1.363226        -0.738949
 H         3.481430         0.030754        -2.760560
 H         1.777498        -0.028428        -2.970353
 H         3.196417         2.639155        -2.066561
 H         1.350884         2.289862        -2.272118
 H         2.057746         2.430008         1.332353
