19
Iteration:  2432
 C        -0.026132         0.275659         0.034834
 C         1.422353         0.422933        -0.043274
 O         2.212369         0.045965         1.104727
 C         3.199147         0.486902         0.114103
 C         2.582241        -0.307261        -0.946411
 C         2.636720         0.393783        -2.233851
 C         2.119635         1.817380        -1.859075
 C         2.239453         1.723226        -0.359163
 O         2.084182         2.834999         0.395224
 H        -0.495418         0.987268         0.793911
 H        -0.489425         0.213666        -0.932248
 H        -0.246194        -0.736049         0.437826
 H         4.231225         0.537648         0.545571
 H         2.634257        -1.360222        -0.869117
 H         3.735842         0.644684        -2.488298
 H         2.216037        -0.170861        -3.016135
 H         2.699699         2.637418        -2.328819
 H         0.965490         2.052528        -2.057323
 H         1.811562         2.489093         1.293515
