19
Iteration:   646
 C        -0.134127         0.269524         0.086501
 C         1.396346         0.372627        -0.059302
 O         2.299707         0.078674         1.087777
 C         3.255040         0.555409         0.097140
 C         2.582886        -0.277940        -1.019055
 C         2.634480         0.349050        -2.267132
 C         2.259906         1.814551        -1.876118
 C         2.210812         1.672904        -0.335849
 O         1.971404         2.853130         0.474031
 H        -0.381808         1.033418         0.789902
 H        -0.753814         0.405627        -0.843437
 H        -0.460471        -0.618639         0.589127
 H         4.280558         0.518256         0.484899
 H         2.684606        -1.475580        -0.859491
 H         3.615257         0.347631        -2.708083
 H         1.931470        -0.169815        -3.093564
 H         3.000175         2.610760        -2.111745
 H         1.279912         2.226322        -2.151798
 H         1.890600         2.283424         1.266158
