19
Iteration:  1356
 C         0.010530         0.268761         0.154388
 C         1.432854         0.317275        -0.073185
 O         2.312879         0.178968         1.187288
 C         3.192977         0.523058         0.038548
 C         2.469935        -0.322313        -1.026080
 C         2.621047         0.385042        -2.254516
 C         2.292533         1.813993        -1.851639
 C         2.181147         1.629621        -0.380647
 O         1.952145         2.824832         0.391151
 H        -0.364061         1.147447         0.825259
 H        -0.469487         0.440850        -0.825647
 H        -0.318436        -0.752951         0.532367
 H         4.326841         0.470253         0.308378
 H         2.638941        -1.409733        -0.892014
 H         3.736951         0.364025        -2.535439
 H         2.075846        -0.012834        -3.063191
 H         2.849754         2.652334        -2.143427
 H         1.221008         2.100910        -2.125397
 H         1.537211         2.694721         1.247242
