19
Iteration:  1611charge 0 multiplicity 1
 C        -0.072020         0.108674        -0.036283
 C         1.407308         0.353168        -0.071310
 O         2.349138         0.155240         1.192670
 C         3.210151         0.587849         0.085058
 C         2.483829        -0.408915        -0.877238
 C         2.434643         0.386822        -2.241650
 C         2.329452         1.888663        -1.805491
 C         2.279344         1.712514        -0.356152
 O         2.004915         2.865334         0.370471
 H        -0.452147         0.845506         0.612748
 H        -0.364927         0.470001        -1.101881
 H        -0.378282        -0.940252         0.118677
 H         4.238427         0.639608         0.414782
 H         2.627541        -1.504750        -0.730968
 H         3.332372         0.098528        -2.846706
 H         1.599475         0.060048        -2.873584
 H         3.129755         2.543612        -2.220614
 H         1.485890         2.525220        -2.155192
 H         2.132311         2.532294         1.280476
