19
Iteration:  2711charge 0 multiplicity 1
 C        -0.076909        -0.070946        -0.012201
 C         1.396207         0.304935        -0.057757
 O         2.202434         0.161854         1.177060
 C         3.225195         0.628067         0.177381
 C         2.465490        -0.263053        -0.915722
 C         2.459475         0.365397        -2.416838
 C         2.347621         1.882862        -1.838524
 C         2.248494         1.710357        -0.346030
 O         2.174134         2.963057         0.432255
 H        -0.517253         0.506379         0.819997
 H        -0.580121         0.135973        -0.993800
 H        -0.200514        -1.187095         0.223450
 H         4.237670         0.675221         0.493834
 H         2.503232        -1.328162        -0.703114
 H         3.261076        -0.009402        -2.983411
 H         1.511191        -0.032713        -2.922312
 H         3.337796         2.528170        -2.074369
 H         1.490251         2.532410        -2.159591
 H         2.034692         2.640780         1.334662
