19
Iteration:  3046
 C        -0.070436        -0.058446         0.036982
 C         1.352092         0.240422        -0.030688
 O         2.210898         0.179403         1.216919
 C         3.168081         0.582606         0.158765
 C         2.543325        -0.304981        -0.907838
 C         2.571634         0.451450        -2.335511
 C         2.186625         1.911072        -1.847719
 C         2.213790         1.686965        -0.372022
 O         2.252143         2.956416         0.332547
 H        -0.585751         0.718200         0.696859
 H        -0.574357         0.051495        -0.941383
 H        -0.406622        -1.040578         0.388492
 H         4.259599         0.560316         0.415535
 H         2.696098        -1.375566        -0.828939
 H         3.579498         0.317612        -2.811120
 H         1.974161        -0.024314        -3.057224
 H         3.035670         2.583672        -2.083434
 H         1.203152         2.494101        -2.181547
 H         1.721081         2.581770         1.057560
