19
Iteration:  3010
 C         0.002229         0.231760         0.145025
 C         1.467789         0.401871        -0.033908
 O         2.281505         0.088793         1.185838
 C         3.202819         0.590559         0.113873
 C         2.507238        -0.263743        -0.966417
 C         2.612023         0.316025        -2.447812
 C         2.373051         1.814390        -1.873320
 C         2.226853         1.699020        -0.363165
 O         1.800874         2.789941         0.427057
 H        -0.492696         1.104918         0.741668
 H        -0.406099         0.194555        -0.910032
 H        -0.190001        -0.688298         0.651108
 H         4.283577         0.520236         0.285602
 H         2.490034        -1.353782        -0.630352
 H         3.576581         0.260440        -2.986618
 H         1.760561         0.036731        -3.116840
 H         3.343080         2.449717        -1.931445
 H         1.570587         2.441213        -2.310243
 H         1.922416         2.635801         1.376735
