19
Iteration:  1468charge 0 multiplicity 1
 C         0.046043        -0.049719        -0.086355
 C         1.445365         0.390061        -0.000573
 O         2.256595         0.224918         1.209826
 C         3.167817         0.637573         0.099390
 C         2.432148        -0.263246        -0.861550
 C         2.324512         0.338309        -2.245020
 C         2.328867         1.871796        -1.868200
 C         2.225253         1.705843        -0.358660
 O         2.157802         2.845875         0.380164
 H        -0.701867         0.485228         0.510091
 H        -0.278055         0.006370        -1.257507
 H        -0.037822        -1.113226         0.101611
 H         4.138372         0.692684         0.521930
 H         2.466238        -1.338046        -0.940070
 H         3.244381         0.293835        -2.876459
 H         1.401435         0.080403        -2.680214
 H         3.354225         2.209891        -2.079712
 H         1.637879         2.629390        -2.298389
 H         2.391582         2.504215         1.283598
