19
Iteration:  1274
 C        -0.026762        -0.073378         0.024378
 C         1.390057         0.312832         0.014324
 O         2.286169         0.204286         1.216795
 C         3.117651         0.594931         0.124826
 C         2.420350        -0.280158        -0.925808
 C         2.392338         0.479637        -2.185245
 C         2.388846         1.905032        -1.906471
 C         2.300579         1.707815        -0.392383
 O         2.167453         2.838968         0.293449
 H        -0.733745         0.418351         0.577409
 H        -0.302149         0.034718        -1.073115
 H        -0.122518        -1.099232         0.194065
 H         4.142108         0.658682         0.527784
 H         2.663333        -1.352049        -0.806006
 H         3.106480         0.126789        -2.885341
 H         1.446923         0.288222        -2.825800
 H         3.331848         2.541576        -1.985074
 H         1.512804         2.429268        -2.231150
 H         1.793078         2.649745         1.169148
