19
Iteration:  1419
 C        -0.022223         0.232260         0.146022
 C         1.436295         0.304602        -0.030257
 O         2.252546         0.140255         1.169888
 C         3.200445         0.602959         0.081019
 C         2.559199        -0.351953        -0.875650
 C         2.509140         0.405014        -2.340032
 C         2.289461         1.910024        -1.860623
 C         2.177823         1.631497        -0.369660
 O         2.027965         2.771785         0.307344
 H        -0.472947         0.935528         0.836085
 H        -0.394565         0.342594        -0.787828
 H        -0.337015        -0.802907         0.412486
 H         4.287420         0.831795         0.478925
 H         2.665640        -1.436287        -0.906948
 H         3.526742         0.245225        -2.556006
 H         1.819546         0.167365        -3.142088
 H         3.187461         2.537333        -2.022871
 H         1.438844         2.422072        -2.316227
 H         1.873937         2.491219         1.223777
