19
Iteration:  4920charge 0 multiplicity 1
 C        -0.076585         0.321234         0.168307
 C         1.415009         0.302219        -0.014070
 O         2.289932         0.037884         1.124459
 C         3.263933         0.579357         0.115975
 C         2.505504        -0.262322        -0.954958
 C         2.588516         0.365312        -2.317999
 C         2.383159         1.917566        -1.860979
 C         2.306495         1.619353        -0.413979
 O         1.809434         2.756776         0.394073
 H        -0.187749         0.968246         1.034530
 H        -0.446528         0.826021        -0.785451
 H        -0.474943        -0.746540         0.166435
 H         4.277996         0.818211         0.297272
 H         2.600672        -1.311961        -0.955743
 H         3.614690         0.327377        -2.691534
 H         1.843916         0.092652        -3.094474
 H         3.244973         2.555562        -2.139268
 H         1.499405         2.333221        -2.231494
 H         1.687122         2.443683         1.303325
