19
Iteration:  3651charge 0 multiplicity 1
 C        -0.126832         0.087584         0.181041
 C         1.398573         0.408074        -0.030306
 O         2.247495         0.057776         1.126029
 C         3.202442         0.580456         0.090693
 C         2.436512        -0.325396        -1.027488
 C         2.696418         0.457761        -2.324986
 C         2.384735         1.858934        -1.886078
 C         2.223625         1.652674        -0.284392
 O         1.967004         2.858200         0.391169
 H        -0.423551         0.671911         1.098256
 H        -0.735537         0.467054        -0.699892
 H        -0.278780        -0.937133         0.299980
 H         4.251176         0.718048         0.294138
 H         2.383863        -1.415067        -0.911938
 H         3.766141         0.538326        -2.723188
 H         2.198612         0.061934        -3.180545
 H         3.006838         2.581614        -2.289542
 H         1.363604         2.291257        -2.202334
 H         2.332010         2.864118         1.285293
