19
Iteration:  3826
 C        -0.063378         0.080756         0.055176
 C         1.411867         0.350971        -0.123919
 O         2.307478         0.152956         1.230500
 C         3.196377         0.491408         0.071943
 C         2.460951        -0.359791        -0.995633
 C         2.607846         0.481765        -2.329200
 C         2.330102         1.948963        -1.807956
 C         2.159155         1.703320        -0.335600
 O         1.992517         2.818514         0.444389
 H        -0.339707         0.942132         0.764798
 H        -0.550740         0.249955        -0.919804
 H        -0.366943        -0.817806         0.508415
 H         4.279595         0.544950         0.265635
 H         2.636485        -1.470150        -1.075310
 H         3.631422         0.402026        -2.809445
 H         1.881544         0.239582        -3.031695
 H         3.229468         2.407601        -2.071530
 H         1.368342         2.398750        -2.295235
 H         2.078990         2.334566         1.319981
