19
Iteration:  1754charge 0 multiplicity 1
 C        -0.050362         0.332623         0.080678
 C         1.470304         0.317964        -0.117988
 O         2.260450         0.123873         1.194971
 C         3.288518         0.558045         0.161398
 C         2.614172        -0.332477        -0.930024
 C         2.513259         0.441031        -2.397196
 C         2.309998         1.868473        -1.830771
 C         2.258964         1.570980        -0.379620
 O         1.831242         2.778792         0.427108
 H        -0.085279         1.076626         0.807036
 H        -0.624025         0.763107        -0.746478
 H        -0.516180        -0.659416         0.399832
 H         4.375964         0.249330         0.542802
 H         2.929898        -1.439692        -0.953780
 H         3.355283         0.229219        -3.090830
 H         1.611280        -0.041260        -2.882400
 H         3.081415         2.607844        -2.223115
 H         1.312557         2.224788        -2.309101
 H         2.116161         2.607255         1.334435
