19
Iteration:   615charge 0 multiplicity 1
 C        -0.042587         0.017928         0.080621
 C         1.455715         0.312935        -0.024425
 O         2.229556         0.254147         1.206156
 C         3.209156         0.498531         0.095857
 C         2.389127        -0.301392        -0.959463
 C         2.572232         0.439671        -2.374030
 C         2.443547         1.957242        -1.831725
 C         2.165988         1.664673        -0.408418
 O         2.041856         2.833610         0.385291
 H        -0.303483         0.718503         0.873239
 H        -0.662463         0.228929        -0.782018
 H        -0.340563        -0.991482         0.483585
 H         4.241444         0.466818         0.422714
 H         2.404070        -1.536045        -1.014257
 H         3.464393         0.179869        -2.847763
 H         1.564155         0.194924        -2.890136
 H         3.308516         2.595624        -1.853832
 H         1.545250         2.413662        -2.215957
 H         2.005336         2.399540         1.285127
