19
Iteration:  2737
 C        -0.031784        -0.069479        -0.014200
 C         1.329880         0.397468         0.008068
 O         2.205863         0.208673         1.186421
 C         3.182464         0.519387         0.060051
 C         2.446651        -0.315924        -0.892441
 C         2.556259         0.475230        -2.237104
 C         2.296903         1.925773        -1.897128
 C         2.199956         1.691168        -0.386067
 O         2.200054         2.875628         0.422028
 H        -0.735589         0.492551         0.584490
 H        -0.337923        -0.044602        -1.070591
 H        -0.089920        -1.182483         0.226900
 H         4.293778         0.744797         0.194957
 H         2.287556        -1.414564        -0.772113
 H         3.549872         0.103740        -2.697497
 H         1.839735         0.019274        -2.900024
 H         3.023991         2.722212        -2.308403
 H         1.265996         2.194231        -2.135675
 H         2.530423         2.684490         1.320904
