19
Iteration:   792charge 0 multiplicity 1
 C        -0.061239         0.030000         0.053272
 C         1.351898         0.406495        -0.053015
 O         2.298432         0.012163         1.168952
 C         3.131922         0.572054         0.099656
 C         2.454569        -0.211866        -0.960638
 C         2.560136         0.427478        -2.256423
 C         2.417828         1.839649        -1.898391
 C         2.193568         1.704915        -0.301095
 O         2.013969         2.906938         0.420215
 H        -0.634608         0.637951         0.791067
 H        -0.571534         0.165267        -0.831571
 H        -0.204742        -1.031058         0.295502
 H         4.201777         0.613494         0.290246
 H         2.561442        -1.241414        -0.993124
 H         3.474934         0.184708        -2.898093
 H         1.681951         0.084425        -2.869371
 H         3.292963         2.456762        -1.990008
 H         1.633777         2.312850        -2.434430
 H         2.861895         3.029891         0.886083
