19
Iteration:  4149
 C         0.010343         0.000873        -0.046989
 C         1.398278         0.334897        -0.075744
 O         2.269535         0.151361         1.180982
 C         3.230215         0.522201         0.154581
 C         2.413992        -0.276995        -0.951720
 C         2.411611         0.470309        -2.287094
 C         2.377917         1.927569        -1.818184
 C         2.227369         1.701123        -0.321362
 O         2.057685         2.859228         0.397514
 H        -0.493662         0.760447         0.593979
 H        -0.583968        -0.175265        -1.020599
 H        -0.030873        -1.050250         0.485582
 H         4.318286         0.631914         0.395519
 H         2.326835        -1.355661        -0.827760
 H         3.323383         0.351251        -2.847447
 H         1.524174         0.175009        -2.946831
 H         3.436829         2.395059        -2.031633
 H         1.628283         2.544212        -2.300972
 H         2.362591         2.541473         1.271875
