19
Iteration:  2498charge 0 multiplicity 1
 C        -0.024705         0.128022         0.069098
 C         1.417019         0.390498        -0.036769
 O         2.322990         0.142170         1.163218
 C         3.157639         0.531976         0.119260
 C         2.476231        -0.332187        -0.954231
 C         2.517194         0.357590        -2.340933
 C         2.494871         1.916452        -1.846236
 C         2.207540         1.676535        -0.403801
 O         1.864192         2.854970         0.452900
 H        -0.449121         0.824665         0.836792
 H        -0.550073         0.516033        -0.787827
 H        -0.417809        -0.805448         0.359226
 H         4.254673         0.384579         0.303410
 H         2.613759        -1.415734        -0.935640
 H         3.419480         0.114352        -2.979638
 H         1.671414         0.146967        -2.925359
 H         3.436946         2.395134        -2.087567
 H         1.630469         2.449445        -2.302272
 H         2.327021         2.553833         1.254657
