19
Iteration:    71charge 0 multiplicity 1
 C        -0.111719        -0.021564         0.006292
 C         1.422847         0.323454        -0.029737
 O         2.199861         0.177519         1.236517
 C         3.180464         0.522596         0.256156
 C         2.610142        -0.284328        -0.931163
 C         2.418188         0.433529        -2.340418
 C         2.313872         1.911226        -1.905444
 C         2.305871         1.737207        -0.372041
 O         2.107797         2.896739         0.332425
 H        -0.587743         0.630697         0.751899
 H        -0.514135         0.081383        -1.112898
 H        -0.085298        -1.045371         0.390459
 H         4.222298         0.409069         0.611888
 H         2.816180        -1.380787        -0.943806
 H         3.246156         0.340723        -3.074329
 H         1.509029        -0.072552        -2.780825
 H         3.255753         2.374279        -2.237438
 H         1.476248         2.590918        -2.296418
 H         1.950499         2.568632         1.255468
