19
Iteration:  4930
 C         0.007508         0.309193         0.092690
 C         1.486258         0.366416         0.042961
 O         2.271196         0.060986         1.220746
 C         3.297811         0.588686         0.050716
 C         2.402355        -0.350667        -0.995685
 C         2.573013         0.447552        -2.384483
 C         2.373728         1.863469        -1.851547
 C         2.234339         1.673984        -0.320665
 O         1.824781         2.733311         0.358589
 H        -0.470849         0.882637         0.940991
 H        -0.393003         0.759282        -0.875518
 H        -0.413038        -0.750679         0.327395
 H         4.332051         0.533777         0.446975
 H         2.686523        -1.352771        -0.913446
 H         3.643081         0.262257        -2.614957
 H         1.992290         0.067727        -3.278438
 H         3.193928         2.645010        -2.073494
 H         1.510844         2.313528        -2.188156
 H         1.762834         2.285176         1.219423
