19
Iteration:  3798
 C        -0.142853        -0.111501         0.126618
 C         1.386502         0.370752        -0.021203
 O         2.136479         0.078504         1.139555
 C         3.187959         0.638991         0.063436
 C         2.455600        -0.257421        -1.017676
 C         2.557359         0.431293        -2.334577
 C         2.466267         1.991555        -1.796130
 C         2.219211         1.720263        -0.320800
 O         2.133350         2.873568         0.398195
 H        -0.709489         0.616131         0.657345
 H        -0.602939        -0.338103        -0.826855
 H        -0.092954        -1.143772         0.704721
 H         4.212736         0.743363         0.419756
 H         2.748345        -1.298803        -1.090064
 H         3.467456         0.191141        -2.917548
 H         1.625658         0.337956        -3.032094
 H         3.432685         2.499788        -2.142113
 H         1.592657         2.461012        -2.183170
 H         2.329956         2.439595         1.278233
