19
Iteration:   787charge 0 multiplicity 1
 C        -0.087783         0.011444         0.078682
 C         1.351862         0.405211        -0.003579
 O         2.277063         0.010081         1.194123
 C         3.132127         0.578507         0.093572
 C         2.443918        -0.217111        -0.967260
 C         2.559475         0.447053        -2.269810
 C         2.445583         1.889489        -1.851651
 C         2.197392         1.671008        -0.388589
 O         2.029947         2.890882         0.395864
 H        -0.700671         0.518555         0.816998
 H        -0.519582         0.159312        -1.007603
 H        -0.102039        -1.079500         0.306036
 H         4.213390         0.752938         0.257972
 H         2.639116        -1.357776        -0.836773
 H         3.356349         0.209951        -2.920023
 H         1.635320         0.120054        -2.829440
 H         3.365156         2.518484        -2.025352
 H         1.702472         2.449584        -2.500623
 H         2.866706         3.008089         0.876773
