19
Iteration:  4616charge 0 multiplicity 1
 C         0.010058         0.174502         0.078551
 C         1.452350         0.379519        -0.068174
 O         2.237239         0.121730         1.174417
 C         3.187717         0.498788         0.104592
 C         2.488929        -0.309502        -0.905169
 C         2.537684         0.423636        -2.277578
 C         2.361840         1.917099        -1.894841
 C         2.268551         1.738741        -0.418187
 O         1.956184         2.798528         0.425727
 H        -0.660302         0.894593         0.521719
 H        -0.468282        -0.050022        -0.941185
 H        -0.260095        -0.813153         0.592323
 H         4.253081         0.543290         0.372017
 H         2.542657        -1.401047        -0.862404
 H         3.387720         0.062049        -2.948559
 H         1.686068        -0.090444        -2.761029
 H         3.266070         2.416280        -2.125724
 H         1.482257         2.544325        -2.348619
 H         1.877603         2.444491         1.338209
