19
Iteration:  2353
 C         0.024734         0.015225         0.085956
 C         1.422087         0.360195        -0.101819
 O         2.188617         0.149691         1.184609
 C         3.197110         0.506860         0.215681
 C         2.550433        -0.328386        -0.933501
 C         2.336052         0.454402        -2.375817
 C         2.491106         1.885534        -1.940124
 C         2.277803         1.734421        -0.329593
 O         2.023888         2.907450         0.430726
 H        -0.526945         0.609804         0.745695
 H        -0.601663         0.192503        -0.819997
 H        -0.182533        -1.056608         0.445166
 H         4.245774         0.384055         0.506078
 H         2.760600        -1.413043        -0.975617
 H         3.041060         0.257685        -3.257919
 H         1.396002         0.187260        -2.735419
 H         3.495927         2.227310        -1.998561
 H         1.913972         2.801163        -2.375483
 H         1.354648         2.505503         1.042726
