19
Iteration:  4670charge 0 multiplicity 1
 C        -0.035598         0.055992        -0.152920
 C         1.449236         0.337553        -0.014631
 O         2.287230         0.154961         1.273290
 C         3.229630         0.544974         0.147640
 C         2.404506        -0.332054        -0.873498
 C         2.453155         0.452584        -2.233477
 C         2.312383         1.936163        -1.849577
 C         2.164175         1.722361        -0.412711
 O         2.140731         2.832221         0.362157
 H        -0.599912         0.297508         0.730117
 H        -0.513533         0.366333        -1.124271
 H        -0.003556        -1.122934        -0.139466
 H         4.322982         0.621533         0.292013
 H         2.387586        -1.414224        -0.767869
 H         3.465333         0.088681        -2.581230
 H         1.553267         0.150275        -2.799770
 H         3.047635         2.668452        -2.107012
 H         1.377813         2.384897        -2.434239
 H         2.274275         2.701210         1.307789
