19
Iteration:   944charge 0 multiplicity 1
 C        -0.001828        -0.118726         0.008161
 C         1.336764         0.482872        -0.055865
 O         2.259699         0.070663         1.187662
 C         3.096791         0.608316         0.093119
 C         2.398188        -0.282948        -0.983385
 C         2.482897         0.414247        -2.300489
 C         2.459396         1.859648        -1.830116
 C         2.192148         1.739032        -0.307215
 O         2.187430         2.980401         0.419779
 H        -0.687151         0.338478         0.836184
 H        -0.539552        -0.127459        -0.910243
 H         0.196173        -1.144948         0.434426
 H         4.169659         0.573751         0.122769
 H         2.506169        -1.324681        -0.885200
 H         3.288909        -0.038451        -2.829185
 H         1.514210         0.233480        -2.886758
 H         3.415565         2.339029        -2.082425
 H         1.656591         2.307011        -2.336716
 H         1.643505         2.751822         1.198286
