19
Iteration:  3168charge 0 multiplicity 1
 C        -0.047920         0.355042         0.187095
 C         1.436340         0.370279        -0.051592
 O         2.334642         0.090275         1.206909
 C         3.210231         0.555315         0.060461
 C         2.505652        -0.364025        -0.962275
 C         2.656595         0.470841        -2.352442
 C         2.371867         1.832918        -1.853139
 C         2.200044         1.623753        -0.376853
 O         1.778823         2.734948         0.328262
 H        -0.515858         1.050799         0.812647
 H        -0.722589         0.078385        -0.581345
 H        -0.057904        -0.615887         0.843585
 H         4.296813         0.703021         0.226367
 H         2.544913        -1.440066        -0.944211
 H         3.681831         0.432208        -2.775464
 H         2.061113        -0.002328        -3.102657
 H         3.250712         2.433570        -2.025147
 H         1.440268         2.456663        -2.231877
 H         2.090659         2.708215         1.264135
