19
Iteration:  1449charge 0 multiplicity 1
 C        -0.036075        -0.001697        -0.057832
 C         1.389108         0.426285        -0.056973
 O         2.301006         0.224866         1.202740
 C         3.278033         0.546105         0.059776
 C         2.464628        -0.354995        -0.879608
 C         2.370786         0.311966        -2.343271
 C         2.397562         1.824315        -1.855668
 C         2.297338         1.782914        -0.295598
 O         2.029892         2.943842         0.470117
 H        -0.718782         0.519909         0.585128
 H        -0.532017         0.073386        -1.099714
 H        -0.041021        -1.099029         0.218523
 H         4.323591         0.537496         0.233447
 H         2.379799        -1.414484        -0.673036
 H         3.164413        -0.189660        -2.913483
 H         1.348947         0.194570        -2.926431
 H         3.166385         2.554871        -2.290707
 H         1.507556         2.268078        -2.262427
 H         2.062459         2.592011         1.387603
