19
Iteration:  4905
 C        -0.088364         0.306657         0.155396
 C         1.419400         0.333863        -0.183248
 O         2.311058         0.058688         1.126605
 C         3.196306         0.559110         0.107465
 C         2.629207        -0.368801        -0.973224
 C         2.617259         0.423847        -2.292607
 C         2.382271         1.859569        -1.872217
 C         2.125764         1.701315        -0.314101
 O         1.874881         2.805188         0.407797
 H        -0.205376         0.802427         1.203852
 H        -0.688650         0.879927        -0.515534
 H        -0.565501        -0.684206         0.389244
 H         4.316854         0.467081         0.505951
 H         2.871746        -1.466008        -0.857030
 H         3.475197         0.178197        -2.981626
 H         1.682052        -0.002290        -2.754489
 H         3.278662         2.570591        -2.098974
 H         1.518768         2.326620        -2.429793
 H         1.843112         2.459067         1.320132
