19
Iteration:  1927charge 0 multiplicity 1
 C         0.022442         0.379740         0.035013
 C         1.432240         0.296229        -0.085530
 O         2.285209         0.063792         1.129005
 C         3.207524         0.666607         0.123679
 C         2.549648        -0.266884        -0.944545
 C         2.553290         0.391981        -2.325184
 C         2.269353         1.812294        -1.868385
 C         2.197302         1.659579        -0.364639
 O         1.995572         2.684979         0.489993
 H        -0.360034         1.036201         0.842051
 H        -0.618895         0.717934        -0.888038
 H        -0.608070        -0.550400         0.312502
 H         4.295360         0.866810         0.502329
 H         2.680139        -1.369574        -0.838629
 H         3.547459         0.308920        -2.944416
 H         1.776606        -0.078969        -2.893511
 H         2.943958         2.586377        -2.162310
 H         1.209014         2.105075        -2.156453
 H         1.752173         2.258714         1.345258
