19
Iteration:  1641
 C        -0.063243        -0.092124        -0.082449
 C         1.344363         0.415848         0.046540
 O         2.228910         0.188177         1.273767
 C         3.199125         0.586773         0.060265
 C         2.518755        -0.289713        -0.953858
 C         2.439697         0.378055        -2.373284
 C         2.278233         1.872590        -1.844217
 C         2.241360         1.733086        -0.292910
 O         2.252930         2.912359         0.413981
 H        -0.754846         0.571921         0.431394
 H        -0.338971         0.137845        -1.106540
 H        -0.227499        -1.088228         0.114264
 H         4.323866         0.618845         0.441736
 H         2.590792        -1.338962        -0.823492
 H         3.226812        -0.006781        -3.053726
 H         1.557612        -0.036191        -2.768647
 H         3.156757         2.444429        -2.135249
 H         1.324313         2.355074        -2.219221
 H         1.826558         2.631694         1.269964
