19
Iteration:  1734
 C        -0.001115         0.340880         0.182628
 C         1.517192         0.402785        -0.041441
 O         2.270018         0.061512         1.156841
 C         3.223314         0.497231         0.114234
 C         2.531415        -0.326381        -1.045595
 C         2.569415         0.356469        -2.328173
 C         2.349894         1.877974        -1.874645
 C         2.250669         1.700374        -0.360069
 O         1.783952         2.752956         0.402616
 H        -0.245894         1.133798         0.901863
 H        -0.491585         0.608696        -0.724041
 H        -0.248855        -0.733426         0.444483
 H         4.132410         0.723586         0.563201
 H         2.627202        -1.431382        -0.958588
 H         3.512652         0.343038        -2.829504
 H         1.810820         0.017185        -3.120926
 H         3.256780         2.515665        -2.043155
 H         1.449882         2.261018        -2.409087
 H         1.924281         2.475069         1.327706
