19
Iteration:   215
 C         0.021407        -0.077030        -0.048117
 C         1.445429         0.413758         0.001812
 O         2.218967         0.179594         1.274621
 C         3.190703         0.422221         0.188942
 C         2.459935        -0.339386        -0.952900
 C         2.423863         0.401082        -2.304217
 C         2.360606         1.921007        -1.878748
 C         2.203819         1.785294        -0.388633
 O         2.120162         2.962353         0.383091
 H        -0.616003         0.617727         0.582719
 H        -0.175174         0.046316        -1.128576
 H        -0.010064        -1.176937         0.190457
 H         4.280146         0.380734         0.414067
 H         2.316619        -1.374478        -0.939568
 H         3.185560         0.088402        -3.137103
 H         1.483635         0.169975        -2.753012
 H         3.209471         2.580931        -2.293677
 H         1.533362         2.464515        -2.345119
 H         1.985871         2.759457         1.345318
