19
Iteration:  4309charge 0 multiplicity 1
 C        -0.041089        -0.025380        -0.015422
 C         1.404119         0.340085         0.021783
 O         2.173962         0.230092         1.173509
 C         3.207348         0.577258         0.059327
 C         2.545226        -0.287658        -0.919590
 C         2.405268         0.468696        -2.189862
 C         2.381664         1.904749        -1.833544
 C         2.258395         1.634409        -0.438323
 O         2.099964         2.835624         0.391217
 H        -0.584103         0.636478         0.676565
 H        -0.330714         0.222027        -1.018862
 H         0.047198        -1.185052         0.113608
 H         4.188606         0.625958         0.503332
 H         2.658865        -1.328230        -1.069368
 H         3.258759         0.155867        -2.915358
 H         1.489569         0.208018        -2.739859
 H         3.299961         2.330099        -2.115560
 H         1.495941         2.707008        -2.103761
 H         2.046921         2.379086         1.291559
