19
Iteration:  1059
 C        -0.057467         0.175435         0.100153
 C         1.410650         0.282368        -0.011755
 O         2.234166         0.131749         1.211739
 C         3.210228         0.529646         0.056096
 C         2.543521        -0.312683        -0.969380
 C         2.588099         0.447659        -2.263733
 C         2.329630         1.923155        -1.855197
 C         2.218960         1.616646        -0.391864
 O         1.981432         2.823598         0.358106
 H        -0.328020         1.009248         0.745304
 H        -0.584912         0.344197        -0.864820
 H        -0.479451        -0.715083         0.633684
 H         4.336895         0.606518         0.022650
 H         2.835827        -1.360679        -1.009130
 H         3.592900         0.271530        -2.904866
 H         1.779020         0.188583        -2.940930
 H         3.133113         2.573464        -2.115617
 H         1.350961         2.405691        -2.074213
 H         1.875209         2.583120         1.287901
