19
Iteration:  2922charge 0 multiplicity 1
 C        -0.160667        -0.041795        -0.056706
 C         1.372620         0.425582         0.013123
 O         2.251959         0.122322         1.174127
 C         3.269061         0.615273         0.120409
 C         2.480859        -0.285713        -0.906690
 C         2.558752         0.396194        -2.258802
 C         2.211081         1.850697        -1.829560
 C         2.209167         1.719399        -0.289231
 O         2.231045         2.928661         0.328572
 H        -0.914423         0.382483         0.651958
 H        -0.538362        -0.019850        -1.102250
 H        -0.030586        -1.140565         0.160722
 H         4.319639         0.829082         0.317238
 H         2.397965        -1.418868        -0.948839
 H         3.575814         0.287340        -2.649198
 H         1.899622        -0.138149        -2.952409
 H         3.056629         2.628501        -2.088292
 H         1.250164         2.208121        -2.238481
 H         1.858010         2.562961         1.167412
