19
Iteration:  3618
 C        -0.054518        -0.115132         0.087307
 C         1.374643         0.350668        -0.012364
 O         2.157006         0.119955         1.133474
 C         3.203656         0.588027         0.116358
 C         2.522864        -0.320774        -0.944882
 C         2.472955         0.465466        -2.280503
 C         2.431494         1.977785        -1.914317
 C         2.186218         1.716949        -0.372820
 O         2.151053         2.893061         0.397340
 H        -0.584227         0.544701         0.815904
 H        -0.635134         0.064423        -0.866220
 H        -0.213349        -1.076314         0.478214
 H         4.237381         0.631778         0.425140
 H         2.476671        -1.412420        -0.921983
 H         3.452112         0.391000        -2.849600
 H         1.645121         0.020840        -2.792166
 H         3.390278         2.350803        -2.015595
 H         1.636769         2.648590        -2.396937
 H         1.905046         2.818707         1.350434
