19
Iteration:  4648
 C        -0.098331         0.018877        -0.090007
 C         1.401065         0.328325        -0.025574
 O         2.204221         0.222455         1.177995
 C         3.216493         0.647120         0.133178
 C         2.551865        -0.316098        -0.954254
 C         2.415889         0.362355        -2.312630
 C         2.312747         1.814433        -1.835917
 C         2.260579         1.726266        -0.364168
 O         2.149005         2.852115         0.478266
 H        -0.613417         0.609092         0.660783
 H        -0.264105         0.380318        -1.144156
 H        -0.229572        -1.118870         0.050479
 H         4.234830         0.756923         0.538056
 H         2.819306        -1.360794        -0.886409
 H         3.286513         0.211753        -3.049083
 H         1.437613        -0.089771        -2.552388
 H         3.197371         2.386720        -2.091598
 H         1.529887         2.614230        -2.178474
 H         2.112870         2.589092         1.415796
