19
Iteration:  3459
 C        -0.019400         0.044743         0.140022
 C         1.421184         0.386861        -0.074872
 O         2.213831         0.260848         1.211918
 C         3.143682         0.542092         0.157187
 C         2.518336        -0.322247        -1.036615
 C         2.504580         0.402381        -2.333736
 C         2.382199         1.898268        -1.819023
 C         2.208180         1.661622        -0.379190
 O         2.044139         2.784618         0.342377
 H        -0.449318         0.604855         1.001793
 H        -0.477919         0.396581        -0.776100
 H        -0.149351        -1.047622         0.137286
 H         4.179594         0.700668         0.551638
 H         2.678498        -1.403940        -0.911867
 H         3.423444         0.283892        -2.847691
 H         1.608272         0.029661        -2.855478
 H         3.441502         2.366687        -2.077478
 H         1.737935         2.559993        -2.346244
 H         1.857463         2.563336         1.276599
