19
Iteration:   907
 C        -0.064140        -0.035354         0.100203
 C         1.377015         0.243301        -0.069472
 O         2.155655         0.171281         1.193594
 C         3.169188         0.553378         0.097505
 C         2.477524        -0.277022        -0.962990
 C         2.467793         0.493511        -2.314265
 C         2.483770         1.881636        -1.816250
 C         2.310082         1.720405        -0.359429
 O         2.068837         2.893749         0.353897
 H        -0.427963         0.737997         0.802253
 H        -0.601755         0.007433        -0.900872
 H        -0.259774        -1.082583         0.507746
 H         4.239121         0.529899         0.402020
 H         2.791896        -1.368539        -1.089561
 H         3.293654         0.164766        -2.967573
 H         1.544268         0.284785        -2.892612
 H         3.217191         2.704119        -2.004502
 H         1.483947         2.427712        -2.119722
 H         2.356555         2.741519         1.266758
