19
Iteration:   938
 C        -0.028196        -0.113665         0.048677
 C         1.309447         0.450264        -0.056469
 O         2.269796         0.058145         1.188607
 C         3.049706         0.580210         0.092801
 C         2.468316        -0.291597        -0.935434
 C         2.411548         0.489805        -2.314376
 C         2.497922         1.851822        -1.846871
 C         2.192766         1.733611        -0.354346
 O         2.211382         2.979851         0.407170
 H        -0.685551         0.323285         0.723132
 H        -0.692708        -0.235772        -0.892928
 H         0.168910        -1.112940         0.369567
 H         4.171493         0.841444         0.322608
 H         2.649732        -1.426607        -1.003612
 H         3.424227        -0.054874        -2.758933
 H         1.603100         0.126691        -2.889651
 H         3.447891         2.385472        -1.975929
 H         1.646689         2.430805        -2.369169
 H         1.638715         2.861695         1.204748
