19
Iteration:  1784
 C        -0.064052         0.135188        -0.044903
 C         1.450584         0.366874        -0.014510
 O         2.338226         0.139872         1.165456
 C         3.235351         0.621915         0.083892
 C         2.443021        -0.278296        -0.914010
 C         2.475873         0.377365        -2.325135
 C         2.268648         1.849544        -1.862138
 C         2.172137         1.635852        -0.326080
 O         2.079450         2.826885         0.483920
 H        -0.523210         0.941120         0.518812
 H        -0.264803         0.510703        -1.118536
 H        -0.333525        -0.918895         0.070658
 H         4.384713         0.645297         0.426124
 H         2.610803        -1.393474        -0.822165
 H         3.531103         0.320595        -2.784479
 H         1.787856        -0.087825        -2.982518
 H         3.208014         2.419044        -1.975716
 H         1.349323         2.238334        -2.336705
 H         1.676330         2.499847         1.322882
