19
Iteration:  2254charge 0 multiplicity 1
 C        -0.038481         0.253414         0.047149
 C         1.457974         0.282822        -0.065423
 O         2.236653         0.173375         1.175478
 C         3.201869         0.504838         0.104425
 C         2.541695        -0.345865        -0.980625
 C         2.615303         0.460606        -2.266808
 C         2.205117         1.882878        -1.889294
 C         2.226751         1.653305        -0.346536
 O         2.015390         2.787906         0.439084
 H        -0.492512         1.005430         0.602070
 H        -0.407751         0.384327        -0.987564
 H        -0.421168        -0.732355         0.398683
 H         4.253631         0.711760         0.357556
 H         2.789484        -1.404739        -0.947980
 H         3.580596         0.246798        -2.823745
 H         1.841126         0.033041        -2.851913
 H         2.846143         2.704604        -2.199144
 H         1.106427         2.180041        -2.038185
 H         2.234960         2.328717         1.292413
