19
Iteration:  1745charge 0 multiplicity 1
 C         0.008653         0.367473         0.133984
 C         1.439758         0.322827        -0.112501
 O         2.254980         0.139012         1.148810
 C         3.312083         0.483596         0.236176
 C         2.622322        -0.302949        -0.992764
 C         2.562069         0.412270        -2.440747
 C         2.312310         1.814997        -1.894925
 C         2.223276         1.635488        -0.309974
 O         1.791326         2.757074         0.425506
 H        -0.239849         1.020407         0.985597
 H        -0.514465         0.641775        -0.740476
 H        -0.445588        -0.613845         0.503981
 H         4.359944         0.508797         0.398022
 H         2.517952        -1.409553        -0.972744
 H         3.426582         0.286354        -3.051491
 H         1.625720        -0.033057        -2.958628
 H         3.171311         2.479632        -2.204759
 H         1.414035         2.439949        -2.059255
 H         2.060797         2.675090         1.345790
