19
Iteration:   252charge 0 multiplicity 1
 C        -0.024256         0.043173         0.040416
 C         1.390095         0.324471        -0.081546
 O         2.246132         0.224266         1.169891
 C         3.178519         0.651979         0.108680
 C         2.513348        -0.374593        -0.967066
 C         2.486618         0.366918        -2.306123
 C         2.423429         1.903014        -1.822195
 C         2.124034         1.673025        -0.365354
 O         2.116874         2.843802         0.427411
 H        -0.560812         0.799566         0.704366
 H        -0.511889         0.241631        -0.927105
 H        -0.352317        -0.963481         0.407587
 H         4.153655         0.946069         0.486231
 H         2.457558        -1.519638        -0.841237
 H         3.278994         0.192612        -2.962103
 H         1.533025         0.053840        -2.853120
 H         3.299331         2.514770        -1.936468
 H         1.570693         2.343387        -2.372543
 H         2.112698         2.393214         1.323765
