19
Iteration:  3432charge 0 multiplicity 1
 C        -0.077520        -0.033809        -0.066954
 C         1.455522         0.395255        -0.052930
 O         2.219768         0.187366         1.169176
 C         3.287714         0.632986         0.146868
 C         2.461931        -0.323865        -0.926497
 C         2.338841         0.344117        -2.214738
 C         2.410651         1.904612        -1.899500
 C         2.321116         1.765645        -0.331298
 O         2.053976         2.871605         0.418414
 H        -0.794551         0.397847         0.640081
 H        -0.355133         0.068953        -1.176592
 H        -0.012961        -1.143982         0.075335
 H         4.295236         0.492447         0.557035
 H         2.499428        -1.364876        -0.570187
 H         3.151703         0.016697        -2.943033
 H         1.289786         0.111466        -2.501124
 H         3.328999         2.249068        -2.323559
 H         1.626499         2.464167        -2.518385
 H         2.100140         2.699278         1.370343
