19
Iteration:  2168charge 0 multiplicity 1
 C        -0.048831        -0.031787         0.065411
 C         1.425497         0.359044        -0.104719
 O         2.193387         0.144578         1.163609
 C         3.185915         0.574719         0.113668
 C         2.465020        -0.329914        -0.961697
 C         2.451649         0.434499        -2.340848
 C         2.462530         1.942936        -1.821386
 C         2.236995         1.712637        -0.427358
 O         2.073146         2.875496         0.458400
 H        -0.321024         0.597482         0.937808
 H        -0.801198         0.041873        -0.766720
 H        -0.111104        -1.064112         0.568963
 H         4.254616         0.660370         0.462739
 H         2.496630        -1.346287        -0.695632
 H         3.341662         0.155373        -3.055697
 H         1.539692         0.249069        -2.860979
 H         3.357867         2.499970        -2.031187
 H         1.577793         2.543932        -2.294613
 H         2.140811         2.542578         1.370413
