19
Iteration:   876
 C        -0.029019         0.223350         0.009800
 C         1.429837         0.396940        -0.033434
 O         2.289403         0.100912         1.148490
 C         3.294072         0.539412         0.067197
 C         2.454767        -0.218203        -0.910173
 C         2.577271         0.360444        -2.319325
 C         2.314682         1.808074        -1.890129
 C         2.180456         1.715680        -0.361928
 O         1.955535         2.779618         0.488171
 H        -0.488445         1.021004         0.665522
 H        -0.392080         0.381204        -1.004903
 H        -0.288452        -0.806357         0.436275
 H         4.313027         0.496687         0.337234
 H         2.509025        -1.328910        -0.870319
 H         3.499860         0.197366        -2.748249
 H         1.739387         0.021541        -3.013971
 H         3.045864         2.622142        -1.922404
 H         1.349537         2.224706        -2.310815
 H         2.014947         2.316849         1.370143
