19
Iteration:  4223charge 0 multiplicity 1
 C        -0.069463         0.264432         0.120298
 C         1.397092         0.348556        -0.028468
 O         2.196593         0.105848         1.230402
 C         3.349842         0.527390         0.102355
 C         2.590927        -0.315536        -1.034679
 C         2.619778         0.436049        -2.381167
 C         2.241590         1.819520        -1.897374
 C         2.264915         1.657905        -0.330678
 O         1.917936         2.790459         0.429539
 H        -0.307478         1.022060         0.810502
 H        -0.525291         0.484383        -0.859311
 H        -0.713314        -0.636041         0.504384
 H         4.423898         0.400176         0.293579
 H         2.721994        -1.368699        -0.979598
 H         3.612528         0.460386        -2.883526
 H         2.007421         0.170865        -3.243012
 H         2.808994         2.630386        -2.246516
 H         1.191891         2.217803        -2.031212
 H         2.095169         2.555736         1.343355
