19
Iteration:   306
 C         0.034944         0.344430         0.135233
 C         1.486734         0.375361        -0.117404
 O         2.216090         0.032231         1.180126
 C         3.279240         0.530443         0.078074
 C         2.513408        -0.322277        -0.984534
 C         2.652100         0.389187        -2.306657
 C         2.230320         1.797437        -1.840291
 C         2.222035         1.703952        -0.350669
 O         1.878675         2.849652         0.403466
 H        -0.273952         1.135900         0.914378
 H        -0.699917         0.489026        -0.691453
 H        -0.215616        -0.659000         0.567781
 H         4.295068         0.248546         0.323867
 H         2.732142        -1.438646        -0.863013
 H         3.640578         0.434936        -2.732623
 H         1.970797        -0.090411        -3.075041
 H         2.960837         2.456372        -2.225206
 H         1.403198         2.173514        -2.314928
 H         1.529184         2.459896         1.260558
