19
Iteration:  1483
 C        -0.104570        -0.075490        -0.070775
 C         1.403927         0.333613         0.010433
 O         2.234419         0.217656         1.288781
 C         3.220869         0.604232         0.188023
 C         2.543182        -0.305151        -0.930252
 C         2.387534         0.436431        -2.308425
 C         2.331357         1.925177        -1.894325
 C         2.155774         1.674203        -0.397637
 O         2.234069         2.872870         0.359631
 H        -0.636371         0.622525         0.585764
 H        -0.402159         0.072394        -1.129615
 H        -0.287277        -1.134606         0.317556
 H         4.293595         0.797467         0.240421
 H         2.833139        -1.366804        -0.741529
 H         3.095824         0.089701        -3.072995
 H         1.359255         0.076757        -2.730692
 H         3.273501         2.538636        -2.043988
 H         1.423497         2.280103        -2.372218
 H         2.185241         2.609391         1.281812
