19
Iteration:   221charge 0 multiplicity 1
 C         0.011278        -0.075574        -0.032507
 C         1.385021         0.422254        -0.028529
 O         2.211747         0.167378         1.263852
 C         3.163336         0.443563         0.154494
 C         2.516103        -0.257652        -0.936631
 C         2.376582         0.389936        -2.301802
 C         2.408691         1.925351        -1.931803
 C         2.289931         1.797236        -0.327182
 O         2.103853         2.945298         0.389743
 H        -0.591924         0.512885         0.605267
 H        -0.263808         0.006200        -1.126002
 H        -0.004017        -1.103724         0.229706
 H         4.209632         0.321030         0.416679
 H         2.479020        -1.427071        -0.893489
 H         3.150769         0.170311        -2.942644
 H         1.435270        -0.127813        -2.771134
 H         3.245509         2.405123        -2.320282
 H         1.369317         2.309733        -2.221344
 H         1.998740         2.546484         1.287423
