19
Iteration:  3495charge 0 multiplicity 1
 C        -0.072657         0.256923         0.245385
 C         1.379058         0.359978        -0.097832
 O         2.340108         0.054894         1.138496
 C         3.088180         0.562216         0.107633
 C         2.495119        -0.331510        -1.033734
 C         2.769427         0.342857        -2.292366
 C         2.304898         1.865523        -1.920950
 C         2.219444         1.740614        -0.338300
 O         1.892035         2.840505         0.413595
 H        -0.468454         0.776719         1.057239
 H        -0.576805         0.555113        -0.657263
 H        -0.416983        -0.857337         0.405857
 H         4.227569         0.451693         0.170340
 H         2.518236        -1.440763        -0.971659
 H         3.855676         0.352787        -2.548727
 H         2.304160        -0.010333        -3.196447
 H         3.090892         2.522794        -2.191706
 H         1.325199         2.129891        -2.432832
 H         2.106204         2.776368         1.361237
