19
Iteration:  1322charge 0 multiplicity 1
 C        -0.050549         0.051512        -0.006217
 C         1.410628         0.363417         0.002735
 O         2.230289         0.144662         1.215960
 C         3.214417         0.644422         0.113463
 C         2.513674        -0.238636        -0.930364
 C         2.389640         0.377966        -2.253349
 C         2.387964         1.884878        -1.927446
 C         2.225016         1.680368        -0.357772
 O         2.085365         2.817115         0.380254
 H        -0.692874         0.711986         0.697878
 H        -0.407769         0.141750        -0.991197
 H        -0.257690        -1.047833         0.320108
 H         4.390872         0.667530         0.350912
 H         2.777712        -1.274602        -0.812407
 H         3.220929         0.132460        -2.947828
 H         1.539471        -0.058444        -2.698811
 H         3.221881         2.473295        -2.272817
 H         1.386976         2.299334        -2.189186
 H         2.564934         2.547148         1.182034
