19
Iteration:  2202
 C        -0.047756        -0.013780         0.022960
 C         1.441167         0.317100        -0.000585
 O         2.201720         0.137009         1.205340
 C         3.251129         0.533361         0.079485
 C         2.521106        -0.324084        -0.952303
 C         2.331408         0.480304        -2.324939
 C         2.540106         1.937406        -1.834932
 C         2.241366         1.727108        -0.326067
 O         2.005205         2.869747         0.344224
 H        -0.489905         0.736514         0.787957
 H        -0.673481         0.140797        -0.843127
 H        -0.232860        -1.082172         0.384390
 H         4.349328         0.564727         0.350469
 H         2.626322        -1.333848        -0.831271
 H         3.105928         0.242817        -3.151733
 H         1.335931         0.271527        -2.726230
 H         3.529441         2.335984        -1.860374
 H         1.830083         2.756859        -2.246633
 H         1.852495         2.514696         1.246780
