19
Iteration:  4464
 C         0.009492         0.056850        -0.026523
 C         1.450206         0.333737         0.014897
 O         2.155288         0.138507         1.208817
 C         3.225898         0.545904         0.141789
 C         2.524274        -0.288697        -0.869285
 C         2.415904         0.394492        -2.281739
 C         2.345083         1.927205        -1.882992
 C         2.312279         1.671138        -0.387544
 O         2.057729         2.893490         0.354180
 H        -0.647675         0.408780         0.718521
 H        -0.591197         0.196691        -0.965176
 H        -0.112568        -1.048857         0.077624
 H         4.283513         0.607091         0.466586
 H         2.914297        -1.305794        -0.989595
 H         3.291288         0.440915        -2.976211
 H         1.482122         0.164803        -2.799131
 H         3.166622         2.498460        -2.213830
 H         1.338566         2.415681        -2.253835
 H         1.956672         2.569477         1.296020
