19
Iteration:  4147charge 0 multiplicity 1
 C         0.003939        -0.006751        -0.050114
 C         1.394149         0.322058        -0.078747
 O         2.264432         0.145961         1.178107
 C         3.226416         0.540623         0.160272
 C         2.403940        -0.270198        -0.960981
 C         2.416491         0.443683        -2.297127
 C         2.385226         1.934041        -1.825957
 C         2.247455         1.708754        -0.300096
 O         2.062323         2.872474         0.396145
 H        -0.453448         0.731693         0.576264
 H        -0.664066        -0.170725        -0.947375
 H        -0.000621        -1.085231         0.511369
 H         4.296547         0.598523         0.381445
 H         2.383334        -1.330430        -0.802877
 H         3.339661         0.355530        -2.883523
 H         1.517546         0.214386        -2.929957
 H         3.386347         2.338333        -2.034494
 H         1.606625         2.610478        -2.262121
 H         2.313295         2.523631         1.304684
