19
Iteration:  2608
 C        -0.089324         0.252142         0.097993
 C         1.404503         0.277737        -0.074717
 O         2.231076         0.159841         1.152632
 C         3.220185         0.512717         0.150237
 C         2.539762        -0.330833        -1.009177
 C         2.674077         0.371841        -2.356761
 C         2.163570         1.933024        -1.865417
 C         2.239009         1.655150        -0.328894
 O         2.073188         2.819019         0.444816
 H        -0.355339         1.149534         0.757578
 H        -0.408343         0.359352        -0.942252
 H        -0.339008        -0.691217         0.589167
 H         4.301124         0.304901         0.403455
 H         2.779984        -1.422106        -0.861008
 H         3.788764         0.441009        -2.608584
 H         2.178228        -0.164308        -3.123093
 H         2.746772         2.743712        -2.264740
 H         1.090228         2.081178        -2.157286
 H         1.416045         2.617477         1.156951
