19
Iteration:   555charge 0 multiplicity 1
 C        -0.094472         0.031676        -0.040110
 C         1.397816         0.287320        -0.017472
 O         2.240730         0.180854         1.224679
 C         3.220875         0.551028         0.097015
 C         2.523761        -0.419050        -0.876488
 C         2.421163         0.488096        -2.346122
 C         2.341196         1.932928        -1.790920
 C         2.249131         1.646755        -0.333220
 O         2.122942         2.900474         0.340150
 H        -0.655321         0.702441         0.660927
 H        -0.545906         0.073772        -1.034871
 H        -0.204876        -0.995251         0.277200
 H         4.309388         0.689842         0.271514
 H         2.827240        -1.410294        -0.697399
 H         3.239686         0.442862        -3.190492
 H         1.575826         0.094534        -2.896431
 H         3.317081         2.469236        -2.095114
 H         1.543492         2.690597        -2.062978
 H         1.948847         2.858734         1.289243
