19
Iteration:  3553charge 0 multiplicity 1
 C        -0.071076         0.158858        -0.063926
 C         1.445001         0.369742        -0.035619
 O         2.303003         0.108582         1.195887
 C         3.232438         0.661917         0.089614
 C         2.567139        -0.297951        -0.931634
 C         2.494137         0.306346        -2.348917
 C         2.276926         1.864917        -1.840764
 C         2.203229         1.689996        -0.268930
 O         2.029474         2.789897         0.465696
 H        -0.400309         1.144508         0.375042
 H        -0.344178         0.235944        -1.174585
 H        -0.535075        -0.633295         0.440271
 H         4.265008         0.874920         0.327378
 H         2.519907        -1.382105        -0.906135
 H         3.496664         0.118894        -2.885508
 H         1.583671        -0.006458        -2.914433
 H         3.057926         2.499804        -2.163783
 H         1.405090         2.325097        -2.379180
 H         1.749438         2.540482         1.373227
