19
Iteration:  1033
 C         0.002073         0.355889         0.042367
 C         1.474012         0.424442        -0.057213
 O         2.360578         0.085038         1.167508
 C         3.302070         0.469796         0.164305
 C         2.466683        -0.305829        -0.964657
 C         2.654095         0.357637        -2.335148
 C         2.229537         1.868908        -1.881287
 C         2.187923         1.652423        -0.368392
 O         1.822335         2.730186         0.443660
 H        -0.195108         1.261473         0.705839
 H        -0.594534         0.580097        -0.954451
 H        -0.449913        -0.480062         0.531338
 H         4.462382         0.530900         0.287762
 H         2.435354        -1.425109        -0.810030
 H         3.653707         0.345531        -2.687972
 H         2.003602         0.182597        -3.197403
 H         2.765907         2.732252        -2.306994
 H         1.204311         1.989293        -2.056445
 H         1.877488         2.494849         1.379111
