19
Iteration:  3748
 C        -0.053517         0.003780        -0.035583
 C         1.424473         0.305277        -0.002821
 O         2.233678         0.172697         1.194887
 C         3.175789         0.571960         0.079808
 C         2.499015        -0.283123        -0.901449
 C         2.427297         0.527081        -2.352813
 C         2.389753         1.901362        -1.769743
 C         2.300193         1.657294        -0.292553
 O         2.075066         2.830450         0.379933
 H        -0.747607         0.700620         0.492943
 H        -0.311442        -0.013255        -1.161693
 H        -0.200996        -0.997635         0.178958
 H         4.280287         0.561743         0.294578
 H         2.451100        -1.372765        -0.808576
 H         3.250636         0.290305        -3.037392
 H         1.563358         0.288759        -2.905791
 H         3.230424         2.495548        -2.148058
 H         1.473264         2.535519        -2.188341
 H         2.004615         2.403962         1.263132
