19
Iteration:  3661
 C        -0.084992         0.184744         0.193455
 C         1.403367         0.318694        -0.007288
 O         2.242649         0.088817         1.137861
 C         3.268335         0.435743         0.086165
 C         2.474686        -0.266598        -0.982909
 C         2.725860         0.460571        -2.307023
 C         2.260723         1.938758        -1.874171
 C         2.221903         1.685165        -0.390160
 O         1.920951         2.816667         0.367312
 H        -0.511238         0.679501         1.088463
 H        -0.559367         0.618666        -0.742911
 H        -0.357763        -0.848403         0.221116
 H         4.307594         0.603076         0.368470
 H         2.475120        -1.356711        -1.057440
 H         3.840358         0.336632        -2.444331
 H         2.190537         0.062912        -3.132989
 H         3.063563         2.565918        -2.037991
 H         1.249570         2.279929        -2.333977
 H         2.325609         2.626309         1.237621
