19
Iteration:   936
 C        -0.047041        -0.117711         0.062304
 C         1.307378         0.427142        -0.056951
 O         2.267280         0.060288         1.185777
 C         3.059576         0.569960         0.100492
 C         2.480584        -0.290796        -0.926760
 C         2.398430         0.489169        -2.312606
 C         2.497964         1.870062        -1.856943
 C         2.191526         1.736964        -0.366867
 O         2.216475         2.972726         0.398945
 H        -0.703695         0.364721         0.735664
 H        -0.680366        -0.250847        -0.887975
 H         0.139276        -1.107046         0.342514
 H         4.162471         0.899532         0.399922
 H         2.661079        -1.380603        -0.999256
 H         3.463982         0.012883        -2.803281
 H         1.605279         0.101257        -2.920653
 H         3.433598         2.400452        -1.940966
 H         1.749133         2.470008        -2.326038
 H         1.656828         2.894525         1.201876
