19
Iteration:   838charge 0 multiplicity 1
 C        -0.038743         0.364915        -0.024239
 C         1.460877         0.311855        -0.067311
 O         2.305439         0.152117         1.201433
 C         3.294157         0.500245         0.165641
 C         2.568498        -0.271272        -0.965462
 C         2.575701         0.437821        -2.292551
 C         2.155647         1.872885        -1.815552
 C         2.150232         1.574088        -0.365805
 O         1.985403         2.708452         0.402949
 H        -0.233183         1.145854         0.699909
 H        -0.555894         0.683436        -0.990327
 H        -0.557875        -0.494949         0.303502
 H         4.406419         0.492148         0.440299
 H         2.688975        -1.331131        -0.807245
 H         3.640777         0.476403        -2.800586
 H         1.962687        -0.028231        -3.010847
 H         2.829182         2.604005        -2.275414
 H         1.174498         2.014982        -2.306195
 H         1.882100         2.319548         1.331368
