19
Iteration:  3610charge 0 multiplicity 1
 C        -0.044453        -0.101316         0.028851
 C         1.373339         0.358997         0.025867
 O         2.158175         0.191139         1.198326
 C         3.185854         0.590034         0.098616
 C         2.523972        -0.337920        -0.937400
 C         2.386848         0.527487        -2.320927
 C         2.443972         1.920869        -1.836522
 C         2.257164         1.724831        -0.359959
 O         2.151939         2.831370         0.361303
 H        -0.711695         0.553389         0.718231
 H        -0.511403        -0.129658        -0.972391
 H        -0.057152        -1.118980         0.388944
 H         4.188337         0.611015         0.461607
 H         2.847239        -1.404759        -0.979935
 H         3.242952         0.179992        -2.961958
 H         1.548268         0.416953        -3.072603
 H         3.446039         2.461336        -2.002199
 H         1.609314         2.356846        -2.318393
 H         1.802624         2.667026         1.273191
