19
Iteration:  3582charge 0 multiplicity 1
 C        -0.023100        -0.036341        -0.148838
 C         1.423691         0.438490        -0.079389
 O         2.306567         0.240202         1.204433
 C         3.245006         0.541754         0.150816
 C         2.485471        -0.365274        -0.893164
 C         2.313674         0.412654        -2.268475
 C         2.372130         1.916844        -1.859331
 C         2.254248         1.746751        -0.324993
 O         2.034177         2.815828         0.477459
 H        -0.564235         0.730624         0.296306
 H        -0.368727        -0.197657        -1.161456
 H        -0.171458        -1.038856         0.427156
 H         4.341349         0.542773         0.520290
 H         2.363710        -1.454072        -0.963225
 H         3.151612         0.137240        -2.886965
 H         1.488060         0.201215        -2.930092
 H         3.352242         2.333023        -2.153682
 H         1.669078         2.514773        -2.510837
 H         2.318931         2.626908         1.408869
