19
Iteration:  4709
 C        -0.057770         0.159480         0.093839
 C         1.384973         0.342143        -0.084585
 O         2.192900         0.044711         1.155632
 C         3.250692         0.592861         0.103408
 C         2.511827        -0.327817        -0.924197
 C         2.659885         0.397241        -2.259174
 C         2.270479         1.883925        -1.898819
 C         2.212108         1.664772        -0.383543
 O         2.063452         2.911899         0.405016
 H        -0.374299         0.794920         1.006850
 H        -0.732189         0.442207        -0.717261
 H        -0.451810        -0.881812         0.235757
 H         4.260355         0.586707         0.539632
 H         2.688067        -1.412270        -1.014121
 H         3.572146         0.318906        -2.842472
 H         1.793068         0.020460        -2.834375
 H         3.092655         2.692184        -2.186009
 H         1.368553         2.227108        -2.328043
 H         1.784247         2.497819         1.273184
