19
Iteration:  4683
 C        -0.040481         0.009517        -0.068029
 C         1.359314         0.452566        -0.006795
 O         2.319309         0.169850         1.221359
 C         3.203567         0.530852         0.154105
 C         2.393346        -0.287279        -0.952419
 C         2.534704         0.390494        -2.302179
 C         2.280261         1.846491        -1.829692
 C         2.289842         1.657563        -0.291351
 O         2.081820         2.902018         0.356679
 H        -0.672790         0.417814         0.702986
 H        -0.417840         0.551223        -1.028166
 H        -0.197727        -1.072984        -0.207048
 H         4.258462         0.552561         0.480467
 H         2.403657        -1.408128        -0.996871
 H         3.494997         0.356658        -2.866428
 H         1.863115         0.021122        -3.066710
 H         3.098493         2.439509        -2.077438
 H         1.289128         2.348205        -2.065316
 H         2.105123         2.590088         1.305880
