19
Iteration:   997
 C        -0.074126         0.283887         0.006536
 C         1.428221         0.313258        -0.084568
 O         2.284497         0.168533         1.152150
 C         3.244748         0.627905         0.123242
 C         2.606496        -0.338272        -0.936419
 C         2.580996         0.387228        -2.374395
 C         2.223892         1.839436        -1.817457
 C         2.154117         1.595699        -0.347337
 O         2.015203         2.753919         0.470134
 H        -0.210114         1.176111         0.746745
 H        -0.431895         0.580313        -0.935538
 H        -0.550806        -0.661512         0.456298
 H         4.214499         0.875495         0.394164
 H         2.695313        -1.387118        -0.791002
 H         3.485294         0.172226        -2.783917
 H         1.814958        -0.108334        -3.076854
 H         2.971715         2.672986        -2.050551
 H         1.216533         2.271903        -2.201826
 H         1.915724         2.277635         1.318707
