19
Iteration:  2373charge 0 multiplicity 1
 C        -0.015619         0.009494        -0.005494
 C         1.415607         0.396601        -0.067910
 O         2.201024         0.152189         1.142296
 C         3.252372         0.630829         0.096519
 C         2.443118        -0.240960        -0.935538
 C         2.353769         0.356772        -2.282006
 C         2.550035         1.894484        -1.805427
 C         2.269411         1.716514        -0.348765
 O         2.044221         2.821398         0.423050
 H        -0.545084         0.577215         0.745969
 H        -0.717881         0.061116        -0.882428
 H         0.169976        -1.073122         0.358058
 H         4.234108         0.812501         0.515595
 H         2.427545        -1.386895        -0.828186
 H         3.034646        -0.064591        -3.026949
 H         1.304992         0.291422        -2.690184
 H         3.488036         2.376592        -2.103833
 H         1.717378         2.352005        -2.309713
 H         1.628456         2.461221         1.227241
