19
Iteration:  3947charge 0 multiplicity 1
 C         0.005584        -0.124026         0.091548
 C         1.386948         0.340533        -0.084645
 O         2.125290         0.128193         1.183588
 C         3.122904         0.574202         0.096043
 C         2.403634        -0.249784        -0.989223
 C         2.513976         0.527706        -2.367781
 C         2.439414         1.979975        -1.816607
 C         2.255142         1.697711        -0.304334
 O         2.166352         2.808089         0.389003
 H        -0.635702         0.476876         0.813679
 H        -0.535301        -0.223398        -0.865814
 H         0.034405        -1.018848         0.765093
 H         4.128621         0.840484         0.386806
 H         2.647491        -1.348957        -0.808537
 H         3.426607         0.265711        -2.990470
 H         1.740329         0.414800        -3.073802
 H         3.373951         2.419359        -1.996255
 H         1.706750         2.726811        -2.302390
 H         1.799796         2.654352         1.276598
