19
Iteration:  3771charge 0 multiplicity 1
 C        -0.038620        -0.121622         0.010761
 C         1.403635         0.387398        -0.096085
 O         2.226035         0.113012         1.147256
 C         3.176303         0.514054         0.168619
 C         2.433380        -0.265375        -0.983453
 C         2.419939         0.398758        -2.293392
 C         2.448140         2.025867        -1.845977
 C         2.174715         1.755786        -0.309365
 O         2.183887         2.931777         0.452964
 H        -0.764871         0.510535         0.634217
 H        -0.538762        -0.487939        -0.935269
 H         0.179086        -1.010834         0.484440
 H         4.196447         0.386728         0.580096
 H         2.498487        -1.389969        -1.073093
 H         3.346725         0.060237        -2.862109
 H         1.630107         0.189960        -2.929412
 H         3.369364         2.442140        -2.189564
 H         1.631819         2.682392        -2.461854
 H         1.573127         2.714654         1.207780
