19
Iteration:  4109
 C        -0.088547        -0.053244         0.116876
 C         1.377407         0.363165        -0.035272
 O         2.213656         0.044755         1.143636
 C         3.151274         0.562787         0.132540
 C         2.509095        -0.271504        -0.966707
 C         2.577466         0.500353        -2.286030
 C         2.376857         1.977154        -1.894046
 C         2.129862         1.684442        -0.378142
 O         2.168205         2.870862         0.377932
 H        -0.355388         0.513188         1.049643
 H        -0.732563         0.135509        -0.717429
 H        -0.151134        -0.993736         0.444264
 H         4.202117         0.531529         0.480797
 H         2.606859        -1.403645        -1.015340
 H         3.385278         0.255530        -3.011328
 H         1.694119         0.176284        -2.827558
 H         3.361121         2.412117        -1.887272
 H         1.753804         2.670766        -2.428830
 H         1.612989         3.037053         1.162633
