19
Iteration:  1769
 C        -0.023524         0.298624        -0.001294
 C         1.444936         0.260070        -0.032073
 O         2.280629         0.102663         1.174476
 C         3.228434         0.591822         0.094745
 C         2.596325        -0.354732        -0.961500
 C         2.503806         0.387471        -2.223403
 C         2.276665         1.899973        -1.852543
 C         2.232782         1.706808        -0.367093
 O         1.961488         2.745938         0.395003
 H        -0.472458         0.919560         0.882231
 H        -0.414483         0.571797        -0.975062
 H        -0.504494        -0.646709         0.251185
 H         4.180869         0.850570         0.275072
 H         2.741483        -1.408483        -0.899530
 H         3.376372         0.247030        -2.829615
 H         1.609673         0.091554        -2.842383
 H         3.051532         2.597223        -2.193674
 H         1.375757         2.427014        -2.122346
 H         1.958001         2.428470         1.329046
