19
Iteration:  1839
 C        -0.072259        -0.065624         0.074311
 C         1.364451         0.309989        -0.107841
 O         2.142159         0.138938         1.269750
 C         3.119791         0.598118         0.120505
 C         2.512732        -0.307069        -1.007463
 C         2.493009         0.471604        -2.359602
 C         2.366984         1.936451        -1.856935
 C         2.188170         1.657465        -0.346120
 O         2.256807         2.910392         0.394770
 H        -0.605478         0.583734         0.740174
 H        -0.454580        -0.109867        -0.993655
 H        -0.012172        -1.057784         0.578965
 H         4.214625         0.827229         0.438182
 H         2.734040        -1.404860        -0.979370
 H         3.390961         0.511440        -3.055379
 H         1.676393         0.024672        -2.850518
 H         3.196521         2.620155        -1.988551
 H         1.489986         2.516590        -2.203019
 H         2.196755         2.633822         1.347528
