19
Iteration:  2612charge 0 multiplicity 1
 C        -0.088367         0.299854         0.097638
 C         1.385740         0.269502        -0.062609
 O         2.247265         0.137632         1.158777
 C         3.204864         0.575382         0.158908
 C         2.530435        -0.325931        -1.016331
 C         2.701937         0.383457        -2.336862
 C         2.176713         1.902590        -1.870857
 C         2.246278         1.632391        -0.339787
 O         2.048303         2.785042         0.423798
 H        -0.402293         1.093047         0.807402
 H        -0.411409         0.394198        -0.942624
 H        -0.195559        -0.636095         0.615592
 H         4.219090         0.368595         0.372773
 H         2.771848        -1.408744        -0.982874
 H         3.697836         0.398572        -2.655595
 H         2.122295        -0.141101        -3.182653
 H         2.822192         2.820152        -2.231606
 H         1.085233         2.085350        -2.056802
 H         1.557921         2.557317         1.242043
