19
Iteration:  2395charge 0 multiplicity 1
 C        -0.100668         0.042801         0.002802
 C         1.379628         0.322928        -0.000949
 O         2.312441         0.214996         1.244189
 C         3.142054         0.516263         0.077176
 C         2.501132        -0.317127        -0.963227
 C         2.478283         0.405190        -2.306460
 C         2.393408         1.937424        -1.850714
 C         2.191576         1.702308        -0.376159
 O         2.053845         2.844367         0.432863
 H        -0.694258         0.752770         0.525939
 H        -0.401337         0.276285        -1.067074
 H        -0.238972        -1.071841         0.212456
 H         4.207892         0.612755         0.292370
 H         2.596698        -1.444707        -0.879655
 H         3.449722         0.295410        -2.834120
 H         1.659596         0.025339        -2.978781
 H         3.410331         2.226930        -2.076798
 H         1.702111         2.544887        -2.428049
 H         2.504646         2.662559         1.287281
