19
Iteration:  1063
 C        -0.054222         0.130482         0.094864
 C         1.400170         0.280382        -0.030466
 O         2.233821         0.115058         1.214803
 C         3.219805         0.549686         0.059631
 C         2.534434        -0.299214        -0.943838
 C         2.577171         0.420628        -2.290556
 C         2.370385         1.941231        -1.856692
 C         2.187082         1.660216        -0.381316
 O         2.019468         2.816141         0.355984
 H        -0.401939         0.982071         0.753312
 H        -0.643744         0.320494        -0.751054
 H        -0.530007        -0.705234         0.629715
 H         4.252270         0.676439         0.137656
 H         2.810317        -1.340465        -0.940590
 H         3.458440         0.312256        -2.894673
 H         1.697322         0.166528        -2.953091
 H         3.181099         2.685829        -2.149528
 H         1.327126         2.337821        -2.223919
 H         1.867187         2.601741         1.308436
