19
Iteration:  1271charge 0 multiplicity 1
 C        -0.002241        -0.061938         0.034852
 C         1.388119         0.297951         0.002082
 O         2.276374         0.193621         1.211991
 C         3.135796         0.612936         0.130828
 C         2.411231        -0.301777        -0.923289
 C         2.411393         0.480169        -2.179613
 C         2.386355         1.940445        -1.886048
 C         2.279700         1.690122        -0.407317
 O         2.162624         2.850147         0.284838
 H        -0.721202         0.546056         0.668425
 H        -0.327298         0.054048        -1.034237
 H        -0.183025        -1.113199         0.220116
 H         4.086516         0.670069         0.519720
 H         2.577001        -1.422663        -0.766834
 H         3.151603         0.121366        -2.997195
 H         1.520067         0.196511        -2.862867
 H         3.346227         2.529708        -1.984728
 H         1.447802         2.446085        -2.283087
 H         1.847360         2.526535         1.182529
