19
Iteration:  4155
 C        -0.011220         0.020730        -0.025287
 C         1.433130         0.402448        -0.057328
 O         2.278137         0.158957         1.192881
 C         3.227341         0.488267         0.117879
 C         2.458520        -0.313250        -0.930610
 C         2.398755         0.520800        -2.268986
 C         2.388275         1.920021        -1.802697
 C         2.176098         1.678430        -0.389186
 O         2.046958         2.818552         0.408015
 H        -0.632518         0.710924         0.519927
 H        -0.203011        -0.060007        -1.082386
 H        -0.175985        -0.940648         0.442041
 H         4.254668         0.649292         0.405689
 H         2.337161        -1.411950        -0.989471
 H         3.333249         0.239200        -2.830820
 H         1.637688         0.127071        -2.897936
 H         3.250844         2.467422        -1.955381
 H         1.587040         2.450428        -2.389135
 H         2.442488         2.665065         1.309230
