19
Iteration:   331
 C        -0.098131         0.278830         0.138613
 C         1.365566         0.311437        -0.019603
 O         2.330963         0.071394         1.180897
 C         3.164188         0.554272         0.170465
 C         2.570929        -0.318803        -0.993499
 C         2.668359         0.439451        -2.317412
 C         2.261485         1.908115        -1.861562
 C         2.196642         1.617916        -0.354818
 O         1.997124         2.784037         0.326504
 H        -0.484377         1.086471         0.736071
 H        -0.557110         0.458486        -0.944183
 H        -0.560348        -0.659653         0.406491
 H         4.220779         0.779928         0.411997
 H         2.896649        -1.440918        -0.977263
 H         3.572353         0.338653        -2.849492
 H         1.750639         0.008649        -2.891375
 H         2.878862         2.691002        -2.276016
 H         1.212510         2.061185        -2.300011
 H         2.161356         2.631705         1.288780
