19
Iteration:  4222charge 0 multiplicity 1
 C        -0.063475         0.266453         0.117803
 C         1.404804         0.346589        -0.028238
 O         2.190856         0.101617         1.225310
 C         3.345205         0.525716         0.096083
 C         2.596663        -0.311933        -1.020862
 C         2.618240         0.433786        -2.384749
 C         2.240578         1.818224        -1.901260
 C         2.266593         1.667433        -0.331733
 O         1.918617         2.787400         0.431699
 H        -0.327767         1.056159         0.803392
 H        -0.534825         0.480684        -0.824739
 H        -0.701782        -0.627983         0.486509
 H         4.409589         0.415640         0.305515
 H         2.710458        -1.376019        -0.945299
 H         3.623939         0.465929        -2.902904
 H         1.995976         0.154228        -3.229956
 H         2.784240         2.633902        -2.229879
 H         1.169757         2.228888        -2.016518
 H         2.100504         2.526597         1.347708
