19
Iteration:    88charge 0 multiplicity 1
 C        -0.090216         0.085641         0.038816
 C         1.411499         0.333701        -0.078579
 O         2.262251         0.073605         1.113388
 C         3.276522         0.683626         0.175836
 C         2.454639        -0.286099        -0.934781
 C         2.485605         0.340585        -2.289448
 C         2.390719         1.851487        -1.831127
 C         2.322912         1.716647        -0.322938
 O         1.985739         2.875485         0.370833
 H        -0.555481         0.901869         0.633372
 H        -0.492357         0.238557        -0.889842
 H        -0.407858        -0.916119         0.419963
 H         4.305353         0.866566         0.505177
 H         2.606880        -1.372256        -0.823600
 H         3.416381         0.113055        -2.779224
 H         1.647459         0.064441        -2.940779
 H         3.148490         2.528185        -2.249783
 H         1.386143         2.188548        -2.176626
 H         1.846298         2.638026         1.326782
