19
Iteration:   739charge 0 multiplicity 1
 C        -0.027981        -0.049046         0.071779
 C         1.385422         0.472848        -0.078740
 O         2.180663         0.144071         1.136211
 C         3.184433         0.606810         0.100788
 C         2.497552        -0.319168        -0.885554
 C         2.413650         0.379451        -2.312033
 C         2.492249         1.938310        -1.911220
 C         2.279233         1.708762        -0.408929
 O         2.096852         2.847783         0.485397
 H        -0.626280         0.417001         0.903782
 H        -0.637786        -0.040386        -0.845086
 H         0.073055        -1.103485         0.349290
 H         4.215968         0.628723         0.513915
 H         2.512306        -1.343778        -0.795219
 H         3.191628         0.033723        -3.072881
 H         1.504476         0.158968        -2.735902
 H         3.385783         2.542866        -2.110511
 H         1.697535         2.512321        -2.382324
 H         1.439165         2.618620         1.184592
