19
Iteration:  1662charge 0 multiplicity 1
 C        -0.046286        -0.100260        -0.027708
 C         1.380535         0.358564        -0.133325
 O         2.166898         0.181025         1.109490
 C         3.205024         0.592670         0.191538
 C         2.440594        -0.315978        -0.895060
 C         2.439224         0.397539        -2.195185
 C         2.269503         1.895332        -1.888110
 C         2.316472         1.774766        -0.374475
 O         2.216534         2.916006         0.426009
 H        -0.511399         0.649208         0.693029
 H        -0.618999        -0.136798        -0.935128
 H         0.065588        -1.054852         0.433514
 H         4.350275         0.493648         0.569081
 H         2.566589        -1.342782        -1.002279
 H         3.389174         0.126885        -2.728044
 H         1.672464         0.051968        -2.868178
 H         3.021547         2.527499        -2.341519
 H         1.323853         2.450664        -1.981861
 H         2.430995         2.602267         1.327365
