19
Iteration:  2075
 C        -0.052984         0.311709        -0.030254
 C         1.377103         0.320895        -0.096379
 O         2.386669         0.020948         1.201740
 C         3.199094         0.583153         0.084246
 C         2.516524        -0.222410        -0.974330
 C         2.530276         0.390581        -2.291156
 C         2.287545         1.831863        -1.871681
 C         2.240809         1.708342        -0.341714
 O         1.974687         2.761475         0.489582
 H        -0.291368         0.991810         0.830555
 H        -0.745316         0.435812        -0.828100
 H        -0.274685        -0.591620         0.496726
 H         4.248656         0.668255         0.316515
 H         2.753790        -1.399009        -0.932070
 H         3.472069         0.177311        -2.711612
 H         1.717848         0.041271        -3.019471
 H         3.065667         2.575009        -2.259957
 H         1.346866         2.243678        -2.162607
 H         1.635168         2.388062         1.333199
