19
Iteration:  1690
 C        -0.105316         0.075755         0.129221
 C         1.311083         0.392336         0.030392
 O         2.240556         0.159498         1.199753
 C         3.190769         0.567594         0.122424
 C         2.515120        -0.395332        -0.995500
 C         2.620198         0.477129        -2.392466
 C         2.343083         1.865625        -1.895901
 C         2.142988         1.671858        -0.350805
 O         2.126140         2.874763         0.382247
 H        -0.733490         0.738839         0.741715
 H        -0.556849        -0.007404        -0.863636
 H        -0.030819        -1.011893         0.512523
 H         4.193437         0.633678         0.303187
 H         2.730786        -1.513584        -1.090371
 H         3.575894         0.273968        -2.864524
 H         1.833072         0.201156        -3.180862
 H         3.227459         2.536387        -1.977741
 H         1.413910         2.398185        -2.069460
 H         2.149106         2.491151         1.278221
