19
Iteration:  2968
 C        -0.031916         0.273882         0.082436
 C         1.410928         0.345585        -0.036393
 O         2.298042         0.209575         1.185447
 C         3.275193         0.592090         0.100041
 C         2.580223        -0.368304        -0.926677
 C         2.508348         0.406303        -2.373574
 C         2.422290         1.911714        -1.842624
 C         2.175287         1.591928        -0.345460
 O         1.840996         2.670171         0.366594
 H        -0.388619         1.187683         0.704998
 H        -0.592540         0.446923        -0.854180
 H        -0.462666        -0.507514         0.587376
 H         4.362935         0.687843         0.379344
 H         2.921143        -1.425471        -0.690997
 H         3.357791         0.225587        -3.060013
 H         1.617692         0.098342        -2.819614
 H         3.350214         2.515679        -2.095404
 H         1.488714         2.395634        -2.330545
 H         1.919437         2.397897         1.319898
