19
Iteration:  1478charge 0 multiplicity 1
 C        -0.027285        -0.073136        -0.083481
 C         1.374297         0.326832         0.017485
 O         2.244111         0.213903         1.289327
 C         3.204159         0.619278         0.148059
 C         2.545249        -0.265063        -0.895934
 C         2.357406         0.467111        -2.285185
 C         2.323509         1.860759        -1.885989
 C         2.157262         1.714961        -0.401109
 O         2.222431         2.835779         0.348855
 H        -0.658572         0.603770         0.522652
 H        -0.382616         0.099742        -1.175484
 H        -0.167756        -1.076556         0.242110
 H         4.289236         0.748624         0.440706
 H         2.522690        -1.357931        -0.794180
 H         3.065274         0.009240        -2.996527
 H         1.473599         0.144214        -2.742173
 H         3.237437         2.393730        -2.060953
 H         1.537186         2.453543        -2.436547
 H         2.294090         2.527617         1.297065
