19
Iteration:  2913charge 0 multiplicity 1
 C        -0.096361        -0.106369        -0.059991
 C         1.327767         0.403552         0.022262
 O         2.277969         0.167212         1.253326
 C         3.158285         0.593001         0.127257
 C         2.455385        -0.269187        -0.984401
 C         2.580400         0.424115        -2.265184
 C         2.205225         1.829944        -1.792723
 C         2.205787         1.709795        -0.361005
 O         2.260798         2.912444         0.330147
 H        -0.911735         0.314146         0.625998
 H        -0.424473         0.166222        -1.076013
 H        -0.200087        -1.108762         0.139118
 H         4.250822         0.622898         0.383091
 H         2.526698        -1.414873        -0.922969
 H         3.597261         0.517117        -2.686611
 H         1.950166        -0.035779        -2.957581
 H         3.057348         2.433428        -2.213742
 H         1.298237         2.324748        -2.272978
 H         2.088937         3.036247         1.284415
