19
Iteration:  4246charge 0 multiplicity 1
 C        -0.035031         0.212626         0.124452
 C         1.376510         0.308158        -0.054891
 O         2.366219         0.101827         1.163105
 C         3.168104         0.513118         0.057919
 C         2.443493        -0.348382        -0.940561
 C         2.654508         0.464714        -2.268630
 C         2.325221         1.903107        -1.822200
 C         2.170124         1.678029        -0.376926
 O         1.972801         2.803594         0.331378
 H        -0.457598         0.784841         0.880570
 H        -0.611198         0.373230        -0.836882
 H        -0.493490        -0.834268         0.351517
 H         4.237131         0.692887         0.283998
 H         2.425056        -1.411563        -0.836977
 H         3.663854         0.382565        -2.675807
 H         2.064215         0.206770        -3.163187
 H         3.039360         2.709952        -1.848550
 H         1.428589         2.471823        -2.117841
 H         1.932968         2.498922         1.285835
