19
Iteration:   268
 C        -0.125478         0.167672         0.080539
 C         1.402704         0.294150         0.000052
 O         2.282306         0.213326         1.240939
 C         3.180822         0.539441         0.065706
 C         2.509894        -0.314948        -0.964989
 C         2.564439         0.433077        -2.320854
 C         2.351691         1.879824        -1.918697
 C         2.167118         1.684296        -0.372016
 O         2.004882         2.781948         0.411506
 H        -0.395198         0.876242         0.815132
 H        -0.472509         0.296137        -0.962903
 H        -0.295025        -0.829532         0.437377
 H         4.300466         0.499640         0.084921
 H         2.986696        -1.272608        -0.976613
 H         3.624076         0.215742        -2.778433
 H         1.817203         0.096466        -3.025212
 H         3.444811         2.163384        -1.941253
 H         1.525132         2.500062        -2.411682
 H         2.132535         2.473641         1.354473
