19
Iteration:  3971charge 0 multiplicity 1
 C        -0.186840        -0.071600         0.064329
 C         1.355164         0.312431        -0.082694
 O         2.246690         0.142538         1.130372
 C         3.187130         0.497620         0.102894
 C         2.522105        -0.296782        -1.008509
 C         2.533872         0.499059        -2.267053
 C         2.454327         1.972654        -1.846242
 C         2.149943         1.726603        -0.321907
 O         2.095304         2.903124         0.459734
 H        -0.867451         0.485223         0.654637
 H        -0.618784        -0.289927        -0.875016
 H        -0.119463        -1.002087         0.768615
 H         4.209400         0.650771         0.367767
 H         2.852281        -1.319973        -1.206404
 H         3.321623         0.110564        -2.939419
 H         1.639682         0.244584        -2.861252
 H         3.433938         2.473824        -2.019070
 H         1.735875         2.633257        -2.408840
 H         2.634028         2.751790         1.257380
