19
Iteration:  3727charge 0 multiplicity 1
 C        -0.048969         0.168278        -0.093045
 C         1.460837         0.367208        -0.101508
 O         2.319399         0.110139         1.192309
 C         3.236317         0.544081         0.135678
 C         2.546571        -0.341320        -0.961775
 C         2.464886         0.413941        -2.254626
 C         2.265075         1.894251        -1.913136
 C         2.235679         1.646872        -0.324977
 O         1.953778         2.829428         0.521934
 H        -0.286233         0.985736         0.664657
 H        -0.457017         0.566265        -1.071744
 H        -0.453014        -0.737999         0.164921
 H         4.267735         0.868303         0.384757
 H         2.611535        -1.440864        -1.064605
 H         3.390010         0.161703        -2.840928
 H         1.690376        -0.071859        -2.765108
 H         3.100216         2.526343        -1.784853
 H         1.315150         2.406318        -2.442056
 H         2.410516         2.522702         1.360408
