19
Iteration:  4822charge 0 multiplicity 1
 C        -0.070968        -0.016518        -0.090046
 C         1.399003         0.346310        -0.089744
 O         2.204797         0.104947         1.257729
 C         3.181674         0.625647         0.156356
 C         2.515611        -0.268512        -0.883684
 C         2.424778         0.437913        -2.280166
 C         2.309606         1.913900        -1.859669
 C         2.263513         1.701313        -0.372015
 O         2.189474         2.850925         0.392761
 H        -0.482859         0.797458         0.512642
 H        -0.387280        -0.050628        -1.162201
 H        -0.113364        -1.045208         0.438579
 H         4.175049         0.902199         0.451184
 H         2.556334        -1.328618        -0.848894
 H         3.291354         0.161894        -2.935407
 H         1.628420        -0.082030        -2.861005
 H         3.098013         2.555621        -2.352843
 H         1.252207         2.393502        -2.078935
 H         2.283847         2.666661         1.329191
