19
Iteration:  1484
 C        -0.117970        -0.075356        -0.069052
 C         1.410627         0.334211         0.006750
 O         2.233381         0.218793         1.285214
 C         3.215982         0.600981         0.189804
 C         2.541500        -0.311730        -0.932842
 C         2.392865         0.423878        -2.312774
 C         2.333713         1.937241        -1.895220
 C         2.159711         1.666814        -0.392231
 O         2.234206         2.880949         0.361153
 H        -0.644435         0.628077         0.598030
 H        -0.397633         0.054142        -1.076392
 H        -0.305526        -1.123027         0.315380
 H         4.342795         0.812679         0.228919
 H         2.885832        -1.373539        -0.749925
 H         3.114476         0.122350        -3.085797
 H         1.353157         0.075967        -2.717381
 H         3.257120         2.555435        -2.045436
 H         1.403695         2.268339        -2.355231
 H         2.162664         2.621139         1.285889
