19
Iteration:   161charge 0 multiplicity 1
 C        -0.035074         0.242295         0.097577
 C         1.461530         0.350711        -0.069720
 O         2.205363         0.137780         1.087404
 C         3.259686         0.555059         0.170469
 C         2.577666        -0.320704        -0.943462
 C         2.589973         0.345973        -2.334232
 C         2.270807         1.821880        -1.966529
 C         2.109236         1.672584        -0.384372
 O         1.995944         2.843243         0.509981
 H        -0.352224         1.096788         0.889460
 H        -0.661157         0.455893        -0.817102
 H        -0.174461        -0.802910         0.594537
 H         4.253399         0.557703         0.676080
 H         2.536924        -1.368269        -0.882259
 H         3.729837         0.283552        -2.644197
 H         1.969148        -0.083020        -3.078154
 H         3.189250         2.523884        -2.265344
 H         1.408125         2.220021        -2.464630
 H         1.956286         2.548992         1.461541
