19
Iteration:  2009
 C        -0.137178        -0.098338         0.097768
 C         1.387051         0.370411        -0.048494
 O         2.148126         0.065075         1.084070
 C         3.201936         0.630854         0.081672
 C         2.495270        -0.264989        -0.946087
 C         2.451309         0.386227        -2.325685
 C         2.476004         1.954948        -1.849350
 C         2.259823         1.760463        -0.318371
 O         2.185792         2.926159         0.438416
 H        -0.586120         0.665342         0.803755
 H        -0.744871        -0.100469        -0.735087
 H        -0.156362        -1.094101         0.494546
 H         4.207314         0.620766         0.487184
 H         2.821492        -1.392431        -1.023630
 H         3.156367         0.116263        -3.031642
 H         1.412342         0.003900        -2.639785
 H         3.389136         2.576733        -2.168834
 H         1.630456         2.452922        -2.268851
 H         1.807334         2.566307         1.290710
