19
Iteration:  2063charge 0 multiplicity 1
 C        -0.124884         0.198920         0.071820
 C         1.429082         0.382846        -0.088566
 O         2.395463         0.115016         1.126727
 C         3.256145         0.554770         0.086139
 C         2.439873        -0.373985        -0.927455
 C         2.506188         0.441260        -2.294989
 C         2.363104         1.925499        -1.842837
 C         2.229893         1.668675        -0.342662
 O         1.954267         2.769751         0.466976
 H        -0.597481         1.068710         0.602351
 H        -0.368384         0.371757        -0.935973
 H        -0.481689        -0.796659         0.312756
 H         4.342844         0.559666         0.222103
 H         2.607357        -1.505000        -0.914985
 H         3.414589         0.350937        -2.793327
 H         1.708208         0.044296        -2.997572
 H         3.299343         2.467747        -2.098181
 H         1.541670         2.406464        -2.312464
 H         1.634481         2.441328         1.350731
