19
Iteration:  1122charge 0 multiplicity 1
 C        -0.028334        -0.160965        -0.016244
 C         1.357474         0.381775        -0.006844
 O         2.264100         0.292843         1.219743
 C         3.168792         0.483124         0.196907
 C         2.405954        -0.321950        -0.892806
 C         2.358929         0.479733        -2.254811
 C         2.436482         1.974464        -1.852618
 C         2.258074         1.717659        -0.388197
 O         2.170196         2.828934         0.309564
 H        -0.705352         0.374976         0.632034
 H        -0.387041        -0.008522        -1.154854
 H        -0.047562        -1.236788         0.116391
 H         4.274386         0.778291         0.400498
 H         2.656128        -1.385921        -1.188924
 H         3.145783         0.376345        -2.914310
 H         1.465666         0.104585        -2.718085
 H         3.380448         2.456053        -2.156011
 H         1.675515         2.563083        -2.254994
 H         1.993072         2.534218         1.219034
