19
Iteration:  2192
 C        -0.047867        -0.013636         0.091027
 C         1.431327         0.315539        -0.042199
 O         2.141824         0.167121         1.236125
 C         3.270736         0.547329         0.149620
 C         2.524033        -0.250610        -0.994037
 C         2.359556         0.503219        -2.380713
 C         2.486128         1.949457        -1.820660
 C         2.284556         1.618757        -0.397793
 O         2.018846         2.836574         0.357149
 H        -0.619306         0.597168         0.943496
 H        -0.448856         0.112884        -0.898955
 H        -0.157791        -1.115407         0.395193
 H         4.331831         0.662617         0.521595
 H         2.640359        -1.266786        -1.064323
 H         3.084702         0.100432        -3.167498
 H         1.326897         0.241036        -2.707255
 H         3.521276         2.113804        -2.009676
 H         1.938184         2.848183        -2.228392
 H         1.993392         2.751924         1.327819
