19
Iteration:  2686charge 0 multiplicity 1
 C        -0.064881         0.106820         0.044576
 C         1.419031         0.323846        -0.016476
 O         2.258837         0.109682         1.185095
 C         3.203346         0.536936         0.120957
 C         2.547838        -0.309086        -0.961260
 C         2.437734         0.440514        -2.248011
 C         2.403166         1.919536        -1.819196
 C         2.229311         1.719197        -0.421196
 O         2.019966         2.862305         0.343587
 H        -0.526453         0.596264         1.009434
 H        -0.570562         0.380011        -0.918390
 H        -0.107867        -0.934940         0.216800
 H         4.261323         0.498090         0.482494
 H         2.856954        -1.406863        -0.941189
 H         3.171761         0.075907        -3.001744
 H         1.459682         0.092471        -2.649458
 H         3.447904         2.300729        -1.929267
 H         1.746905         2.638976        -2.372098
 H         1.579797         2.501725         1.118797
