19
Iteration:  3467charge 0 multiplicity 1
 C        -0.084893         0.117246         0.178181
 C         1.414957         0.300987        -0.042963
 O         2.221693         0.213553         1.154534
 C         3.209271         0.648202         0.143252
 C         2.525876        -0.342344        -0.962965
 C         2.567986         0.431425        -2.307500
 C         2.382111         1.883730        -1.876018
 C         2.171700         1.643225        -0.384341
 O         2.042220         2.764527         0.343872
 H        -0.588392         0.549390         1.109507
 H        -0.740257         0.375095        -0.716286
 H        -0.203540        -0.919126         0.207180
 H         4.245433         0.592466         0.309899
 H         2.457581        -1.417775        -1.018204
 H         3.515238         0.316624        -2.856332
 H         1.852247         0.201825        -3.135149
 H         3.364910         2.442401        -1.835037
 H         1.676254         2.501516        -2.437784
 H         1.839739         2.662087         1.293237
