19
Iteration:  4435
 C        -0.075095         0.121543         0.101283
 C         1.409997         0.333332        -0.065454
 O         2.329732         0.146921         1.155385
 C         3.168401         0.565091         0.156570
 C         2.459996        -0.309929        -0.938261
 C         2.589917         0.344991        -2.356881
 C         2.379748         1.909589        -1.854065
 C         2.154931         1.653836        -0.364573
 O         1.984747         2.861717         0.396551
 H        -0.539990         0.795516         0.854789
 H        -0.646761         0.286302        -0.856768
 H        -0.258361        -0.893267         0.370151
 H         4.222970         0.735703         0.466397
 H         2.718752        -1.434201        -0.959209
 H         3.556556         0.353165        -2.785190
 H         1.882444         0.097651        -3.204550
 H         3.257049         2.683883        -1.963566
 H         1.632026         2.469021        -2.342544
 H         1.972911         2.488529         1.314345
