19
Iteration:  1361charge 0 multiplicity 1
 C         0.016497         0.293385         0.185800
 C         1.459017         0.353451        -0.055119
 O         2.283274         0.124511         1.174473
 C         3.207665         0.538975         0.008086
 C         2.447094        -0.285074        -0.971700
 C         2.680859         0.375118        -2.247688
 C         2.234974         1.812743        -1.856034
 C         2.227172         1.663700        -0.384024
 O         1.918660         2.785067         0.383280
 H        -0.260666         1.091049         0.814360
 H        -0.485500         0.453349        -0.840491
 H        -0.257621        -0.664764         0.547540
 H         4.228116         0.504930         0.186534
 H         2.535864        -1.374562        -0.991998
 H         3.737111         0.191308        -2.510519
 H         2.136001         0.032823        -3.211418
 H         2.943385         2.643601        -2.220798
 H         1.246965         1.989473        -2.274107
 H         1.551390         2.692596         1.294042
