19
Iteration:  1494
 C        -0.155694        -0.026303         0.017962
 C         1.401791         0.287093        -0.048249
 O         2.239871         0.220841         1.201701
 C         3.182464         0.602248         0.107590
 C         2.561357        -0.353504        -0.911372
 C         2.467108         0.319177        -2.319694
 C         2.303572         1.938891        -1.849649
 C         2.276057         1.685541        -0.321004
 O         2.194160         2.935762         0.374113
 H        -0.798275         0.668208         0.594924
 H        -0.586780        -0.006635        -1.026266
 H        -0.352468        -1.119126         0.332222
 H         4.187861         0.732259         0.545309
 H         2.899642        -1.417844        -1.009693
 H         3.275920         0.317205        -3.041703
 H         1.431521         0.080306        -2.802665
 H         3.092644         2.690422        -2.208774
 H         1.399096         2.499947        -2.135180
 H         1.961327         2.758695         1.302794
