19
Iteration:   810
 C        -0.063730         0.178703         0.022733
 C         1.453080         0.352023        -0.082900
 O         2.248072         0.052177         1.113962
 C         3.268879         0.545318         0.163234
 C         2.469099        -0.352410        -0.992264
 C         2.577838         0.313384        -2.365561
 C         2.268030         1.881531        -1.832221
 C         2.258929         1.705760        -0.340947
 O         1.934564         2.944884         0.527306
 H        -0.419192         0.861241         0.818192
 H        -0.566366         0.391430        -0.961309
 H        -0.252566        -0.877409         0.409350
 H         4.302634         0.588941         0.489767
 H         2.582636        -1.442957        -0.607234
 H         3.572280         0.285600        -2.712944
 H         1.973777        -0.124308        -3.250126
 H         2.982143         2.576338        -2.339538
 H         1.313507         2.313608        -2.231458
 H         2.682901         3.123795         1.130729
