19
Iteration:  4445
 C        -0.068921         0.053235         0.059013
 C         1.386767         0.341946        -0.117371
 O         2.262643         0.194604         1.180611
 C         3.236199         0.544607         0.121149
 C         2.559835        -0.314457        -0.997241
 C         2.539298         0.378937        -2.313120
 C         2.341199         1.905909        -1.737133
 C         2.195876         1.673906        -0.346300
 O         2.019380         2.869710         0.344714
 H        -0.429136         0.716095         0.844149
 H        -0.647798         0.325939        -0.892044
 H        -0.360615        -0.917951         0.339803
 H         4.322191         0.671610         0.391708
 H         2.410481        -1.438897        -0.762108
 H         3.472037         0.116938        -2.771771
 H         1.638989         0.229852        -2.974201
 H         3.321269         2.506645        -1.853614
 H         1.446400         2.253395        -2.206076
 H         1.919247         2.644444         1.315055
