19
Iteration:   361
 C        -0.061200         0.047868         0.022078
 C         1.444509         0.384125         0.024060
 O         2.265456         0.204785         1.144507
 C         3.235752         0.537445         0.057591
 C         2.408292        -0.342398        -0.928806
 C         2.526368         0.328543        -2.301133
 C         2.299442         1.958473        -1.883664
 C         2.237963         1.699570        -0.382847
 O         2.067715         2.862291         0.488646
 H        -0.643176         0.759651         0.674424
 H        -0.347679         0.232580        -1.065867
 H        -0.317072        -0.995828         0.228895
 H         4.270082         0.708337         0.332477
 H         2.571379        -1.497855        -0.879608
 H         3.527064         0.243748        -2.664288
 H         1.806239        -0.150261        -3.050787
 H         3.146231         2.417622        -2.251051
 H         1.441472         2.305113        -2.326369
 H         2.007870         2.689109         1.456926
