19
Iteration:  4380charge 0 multiplicity 1
 C        -0.061034         0.235453         0.109053
 C         1.448087         0.309223        -0.127647
 O         2.234410         0.172516         1.301702
 C         3.230013         0.502852         0.130065
 C         2.570487        -0.318173        -0.990936
 C         2.583441         0.465356        -2.321664
 C         2.255950         1.858693        -1.854658
 C         2.226267         1.660465        -0.396390
 O         1.962050         2.732963         0.369289
 H        -0.229405         1.188014         0.602294
 H        -0.484682         0.254823        -0.930723
 H        -0.238192        -0.602941         0.702368
 H         4.307660         0.721979         0.295116
 H         2.731361        -1.436865        -1.136522
 H         3.518605         0.595146        -2.783896
 H         1.953313         0.047161        -3.141435
 H         3.002586         2.702994        -2.125051
 H         1.344446         2.209459        -2.203360
 H         1.795333         2.402992         1.283826
