19
Iteration:   804
 C        -0.075022         0.110770         0.017597
 C         1.419843         0.365344        -0.112866
 O         2.286410         0.048134         1.100570
 C         3.239036         0.550388         0.172174
 C         2.467493        -0.321687        -0.968217
 C         2.553446         0.333644        -2.361050
 C         2.312883         1.854591        -1.878932
 C         2.191744         1.757665        -0.246900
 O         1.970317         2.940731         0.498960
 H        -0.340537         0.831928         0.813309
 H        -0.593583         0.327709        -0.887578
 H        -0.234743        -0.877591         0.401622
 H         4.325039         0.495715         0.434903
 H         2.476496        -1.346260        -0.781832
 H         3.667508         0.155433        -2.624833
 H         1.908690        -0.044841        -3.145396
 H         3.139458         2.465078        -2.229571
 H         1.396623         2.303479        -2.233239
 H         2.712821         3.201051         1.067973
