19
Iteration:  1199
 C        -0.033952         0.400911         0.172765
 C         1.475225         0.273776        -0.010270
 O         2.336673         0.201245         1.166805
 C         3.179150         0.480300         0.086551
 C         2.551495        -0.402551        -1.009195
 C         2.706239         0.447191        -2.286872
 C         2.216115         1.819802        -1.833944
 C         2.170521         1.648489        -0.382709
 O         1.896312         2.718332         0.349510
 H        -0.286173         1.255478         0.776301
 H        -0.481046         0.574793        -0.900806
 H        -0.612761        -0.478025         0.573837
 H         4.360514         0.544575         0.179337
 H         2.623794        -1.489610        -1.195090
 H         3.653139         0.514588        -2.686461
 H         2.097680         0.179074        -3.150679
 H         2.893157         2.670694        -2.081598
 H         1.229131         2.171583        -1.970609
 H         1.505812         2.463422         1.227399
