19
Iteration:  3292
 C         0.001326         0.118693         0.049023
 C         1.462633         0.334206        -0.013543
 O         2.213959         0.108569         1.173442
 C         3.289121         0.566280         0.093843
 C         2.515778        -0.224608        -0.945808
 C         2.469574         0.288355        -2.307865
 C         2.396828         1.869145        -1.895797
 C         2.274468         1.683735        -0.362671
 O         1.911851         2.939981         0.402539
 H        -0.344263         0.658072         0.995113
 H        -0.670194         0.449399        -0.812719
 H        -0.382425        -0.878029         0.170440
 H         4.345709         0.444726         0.265892
 H         2.588219        -1.345904        -0.796530
 H         3.391458         0.062050        -2.794346
 H         1.472093        -0.052827        -2.630136
 H         3.446876         2.388028        -2.119796
 H         1.487576         2.409301        -2.320513
 H         1.622349         2.607148         1.286839
