19
Iteration:  4300charge 0 multiplicity 1
 C        -0.006622         0.003334        -0.006164
 C         1.425445         0.316563        -0.098869
 O         2.128964         0.245475         1.229129
 C         3.237369         0.577617         0.097284
 C         2.524057        -0.296078        -0.939048
 C         2.402470         0.435290        -2.271215
 C         2.393795         1.949634        -1.857317
 C         2.246069         1.686208        -0.349712
 O         2.102338         2.782345         0.375190
 H        -0.381444         0.412267         0.884260
 H        -0.653018         0.091142        -0.927805
 H        -0.014339        -1.118774         0.378327
 H         4.282545         0.652054         0.448559
 H         2.660611        -1.359017        -0.953997
 H         3.270016         0.201623        -2.930238
 H         1.420946         0.183103        -2.721360
 H         3.331192         2.452466        -1.940599
 H         1.494854         2.569041        -2.287540
 H         2.101573         2.549062         1.347970
