19
Iteration:  4574charge 0 multiplicity 1
 C        -0.083132         0.292540         0.197566
 C         1.321322         0.303085        -0.098903
 O         2.351973         0.003941         1.224618
 C         3.169971         0.599203         0.142898
 C         2.497000        -0.313378        -1.038675
 C         2.694395         0.404445        -2.286369
 C         2.363989         1.892646        -1.888204
 C         2.156042         1.670302        -0.410948
 O         1.920495         2.806320         0.371085
 H        -0.235725         1.245799         0.661867
 H        -0.667212         0.129121        -0.807542
 H        -0.160840        -0.545162         0.929129
 H         4.284624         0.555174         0.277146
 H         2.665212        -1.422107        -0.942203
 H         3.746436         0.474082        -2.695885
 H         2.076056         0.170753        -3.180649
 H         3.084230         2.610463        -2.149908
 H         1.457706         2.289337        -2.475179
 H         1.836322         2.478365         1.312241
