19
Iteration:   899
 C        -0.050609         0.040692         0.071886
 C         1.385091         0.306212        -0.098077
 O         2.205381         0.162152         1.201856
 C         3.167377         0.499296         0.128362
 C         2.490667        -0.330256        -0.986718
 C         2.477330         0.426214        -2.298025
 C         2.434723         1.951171        -1.845733
 C         2.298048         1.709096        -0.358532
 O         2.020011         2.861600         0.388141
 H        -0.553455         0.747845         0.843098
 H        -0.538134         0.094240        -0.854210
 H        -0.035530        -1.010146         0.540854
 H         4.132422         0.674020         0.454274
 H         2.709947        -1.385822        -0.953230
 H         3.322574         0.440101        -2.856606
 H         1.587564         0.215979        -3.000882
 H         3.306470         2.564394        -2.218281
 H         1.483683         2.396290        -2.153008
 H         2.429013         2.796465         1.267647
