19
Iteration:  1017
 C        -0.018297         0.434921         0.053316
 C         1.445637         0.327957        -0.069080
 O         2.328281         0.027558         1.180597
 C         3.234675         0.577727         0.019199
 C         2.552447        -0.316335        -0.942886
 C         2.627908         0.382118        -2.266262
 C         2.195347         1.801751        -1.943691
 C         2.292166         1.738287        -0.345737
 O         1.846343         2.759799         0.526594
 H        -0.540552         1.200327         0.659370
 H        -0.403504         0.531463        -0.905722
 H        -0.463191        -0.556428         0.408276
 H         4.220693         0.514720         0.336166
 H         2.779726        -1.358979        -0.961012
 H         3.706127         0.344108        -2.726104
 H         1.981276        -0.281842        -2.878795
 H         2.883448         2.573780        -2.350319
 H         1.149835         1.951540        -2.474084
 H         1.820161         2.267927         1.392216
