19
Iteration:  4458
 C        -0.040097         0.032763        -0.010223
 C         1.448846         0.351061        -0.035939
 O         2.157293         0.169144         1.203297
 C         3.240275         0.561049         0.070573
 C         2.527440        -0.321946        -0.894657
 C         2.484509         0.448859        -2.255610
 C         2.348656         1.874191        -1.840312
 C         2.279013         1.657315        -0.309520
 O         2.044989         2.875910         0.334192
 H        -0.547769         0.614469         0.858905
 H        -0.588863         0.271709        -0.924943
 H        -0.125774        -1.037355         0.170834
 H         4.302113         0.548924         0.327795
 H         2.793176        -1.417043        -1.013943
 H         3.218006         0.437626        -3.051490
 H         1.542106         0.022724        -2.678726
 H         3.157865         2.611113        -2.256628
 H         1.519116         2.411112        -2.133686
 H         1.916449         2.721611         1.280587
