19
Iteration:  4948
 C        -0.019689         0.221544        -0.005176
 C         1.427374         0.354160        -0.075911
 O         2.348883         0.182364         1.198614
 C         3.208135         0.403456         0.104571
 C         2.491329        -0.332783        -0.973247
 C         2.592266         0.407262        -2.290016
 C         2.283698         1.894532        -1.815499
 C         2.213348         1.635461        -0.340184
 O         1.908086         2.844811         0.434548
 H        -0.368722         0.966091         0.753625
 H        -0.322841         0.420338        -0.990694
 H        -0.259931        -0.787841         0.357560
 H         4.369126         0.483227         0.186658
 H         2.377646        -1.456145        -1.042038
 H         3.582106         0.411728        -2.794971
 H         1.763922         0.130060        -2.957258
 H         3.118268         2.644204        -2.054406
 H         1.350798         2.302184        -2.332225
 H         1.806405         2.589121         1.361005
