19
Iteration:  2974
 C        -0.071583         0.315297         0.110793
 C         1.427567         0.323135        -0.047669
 O         2.340529         0.189678         1.181462
 C         3.218053         0.609655         0.049022
 C         2.565266        -0.373164        -0.894079
 C         2.562836         0.401298        -2.329990
 C         2.446016         1.930475        -1.831372
 C         2.197302         1.655827        -0.348919
 O         1.805960         2.639235         0.356839
 H        -0.245168         1.227851         0.633338
 H        -0.511329         0.427565        -0.897239
 H        -0.540429        -0.652830         0.610982
 H         4.287057         0.614135         0.156931
 H         2.854744        -1.402090        -0.690428
 H         3.263812         0.202612        -3.151617
 H         1.521947         0.042325        -2.747476
 H         3.344098         2.517302        -2.108451
 H         1.602298         2.330331        -2.292530
 H         1.817985         2.219542         1.249209
