19
Iteration:   329charge 0 multiplicity 1
 C        -0.093211         0.279860         0.141127
 C         1.360312         0.306065        -0.000328
 O         2.310836         0.064937         1.173068
 C         3.199746         0.537490         0.172977
 C         2.587606        -0.322818        -0.992670
 C         2.664816         0.439132        -2.326706
 C         2.258119         1.921441        -1.889496
 C         2.201114         1.621931        -0.339063
 O         1.983666         2.793377         0.327727
 H        -0.486121         1.129404         0.760178
 H        -0.534369         0.491924        -0.914409
 H        -0.602487        -0.635627         0.448812
 H         4.215678         0.821149         0.422929
 H         2.877130        -1.467171        -0.970018
 H         3.562831         0.300436        -2.819370
 H         1.784473        -0.011362        -2.960096
 H         2.816711         2.677879        -2.302857
 H         1.272712         2.111745        -2.260459
 H         2.128464         2.588071         1.261564
