19
Iteration:   201
 C        -0.004617         0.014828        -0.072347
 C         1.411136         0.369678         0.004536
 O         2.266493         0.196118         1.171984
 C         3.288050         0.510969         0.135973
 C         2.387596        -0.347932        -0.896042
 C         2.443273         0.458839        -2.265807
 C         2.327207         1.905460        -1.800917
 C         2.169141         1.642165        -0.308206
 O         2.133028         2.920057         0.293950
 H        -0.689108         0.486187         0.520628
 H        -0.488329         0.009590        -1.113007
 H        -0.095329        -0.966160         0.274171
 H         4.302145         0.628228         0.556303
 H         2.470879        -1.458918        -0.877938
 H         3.396317         0.268096        -2.762343
 H         1.621262         0.174433        -2.987340
 H         3.252040         2.403041        -1.668715
 H         1.436553         2.422240        -2.315462
 H         2.029023         2.676540         1.219775
