19
Iteration:   828
 C        -0.016308         0.329875         0.023087
 C         1.456493         0.368051        -0.022374
 O         2.226485         0.101893         1.196130
 C         3.218619         0.518156         0.093096
 C         2.598086        -0.328550        -0.960998
 C         2.598179         0.462489        -2.280528
 C         2.192637         1.818427        -1.886549
 C         2.250837         1.671155        -0.332400
 O         1.938154         2.716268         0.416729
 H        -0.373968         1.079653         0.716524
 H        -0.318392         0.630031        -1.059052
 H        -0.355229        -0.646338         0.292276
 H         4.336952         0.517502         0.355948
 H         2.715320        -1.421133        -1.084133
 H         3.604523         0.316184        -2.797231
 H         1.865120         0.042838        -2.893924
 H         2.736017         2.702645        -2.274494
 H         1.098380         2.056082        -2.090295
 H         2.357252         2.693082         1.300788
