19
Iteration:  1758
 C        -0.077957         0.311899         0.046423
 C         1.491647         0.297700        -0.094480
 O         2.265213         0.110335         1.209789
 C         3.266571         0.558853         0.116751
 C         2.609991        -0.359189        -0.936592
 C         2.497560         0.419955        -2.334204
 C         2.300854         1.904477        -1.841376
 C         2.273944         1.623873        -0.386252
 O         1.862964         2.769636         0.408502
 H        -0.085843         1.168580         0.835165
 H        -0.600745         0.774845        -0.771100
 H        -0.463913        -0.663348         0.328666
 H         4.173934         0.458777         0.522041
 H         3.016226        -1.338534        -0.889938
 H         3.317436         0.302511        -3.000229
 H         1.574012         0.027991        -2.872002
 H         3.063571         2.636923        -2.079884
 H         1.354375         2.101422        -2.265943
 H         2.132259         2.497796         1.324877
