19
Iteration:  2126charge 0 multiplicity 1
 C        -0.055371         0.207014         0.007339
 C         1.339116         0.340477        -0.106383
 O         2.339134         0.103583         1.267436
 C         3.262160         0.540375         0.114509
 C         2.435661        -0.363007        -0.934843
 C         2.656711         0.469907        -2.370969
 C         2.179315         1.914506        -1.853370
 C         2.222881         1.654955        -0.312658
 O         2.068822         2.777439         0.396929
 H        -0.449271         0.980725         0.746341
 H        -0.549895         0.322122        -0.944235
 H        -0.424608        -0.837989         0.272836
 H         4.378112         0.729245         0.234947
 H         2.371803        -1.369755        -0.880558
 H         3.719108         0.396677        -2.713752
 H         1.982884         0.133442        -3.166931
 H         2.717730         2.798369        -2.066188
 H         1.126557         2.176934        -2.132047
 H         2.006459         2.541165         1.367419
