19
Iteration:  3501
 C        -0.038501         0.297130         0.206697
 C         1.386523         0.379198        -0.082702
 O         2.301908         0.050467         1.119676
 C         3.210559         0.562107         0.144800
 C         2.449104        -0.364254        -0.977830
 C         2.777359         0.410257        -2.353049
 C         2.273441         1.801183        -1.928087
 C         2.188021         1.668089        -0.342254
 O         1.859341         2.864850         0.417620
 H        -0.426157         0.832397         1.163483
 H        -0.638498         0.557920        -0.708410
 H        -0.114463        -0.726502         0.443373
 H         4.262429         0.431919         0.302553
 H         2.448010        -1.449033        -1.090426
 H         3.873646         0.451537        -2.422152
 H         2.269667        -0.012800        -3.260880
 H         3.093895         2.616668        -2.171640
 H         1.324396         2.089568        -2.305296
 H         2.246918         2.660193         1.307225
