19
Iteration:   326charge 0 multiplicity 1
 C        -0.096897         0.284957         0.138048
 C         1.368836         0.298803         0.021245
 O         2.277372         0.055454         1.165108
 C         3.248828         0.518841         0.165139
 C         2.612947        -0.334245        -0.985836
 C         2.637685         0.436322        -2.336946
 C         2.251524         1.916918        -1.920066
 C         2.206969         1.630651        -0.326178
 O         1.963846         2.809972         0.333300
 H        -0.453472         1.154813         0.780850
 H        -0.468964         0.526674        -0.808147
 H        -0.635434        -0.617757         0.522571
 H         4.249385         0.843836         0.454160
 H         2.795348        -1.389555        -0.959993
 H         3.657816         0.246017        -2.835235
 H         1.929292         0.001682        -3.028840
 H         2.853237         2.764239        -2.348859
 H         1.268408         2.195924        -2.216488
 H         2.072847         2.535360         1.268511
