19
Iteration:  2316charge 0 multiplicity 1
 C        -0.102355         0.191912         0.051221
 C         1.339161         0.344723        -0.075859
 O         2.377178         0.066313         1.153245
 C         3.190277         0.527551         0.080061
 C         2.411200        -0.310118        -0.888066
 C         2.607435         0.437201        -2.315519
 C         2.311765         1.855395        -1.816419
 C         2.210303         1.691773        -0.376086
 O         1.970740         2.863900         0.416151
 H        -0.520963         0.880835         0.874679
 H        -0.530760         0.247505        -0.993424
 H        -0.147810        -0.861899         0.342746
 H         4.279606         0.519400         0.202517
 H         2.777996        -1.399596        -0.799255
 H         3.624628         0.420559        -2.558792
 H         1.991812         0.036326        -3.221762
 H         3.273579         2.447868        -1.964366
 H         1.553460         2.321224        -2.337672
 H         2.396488         2.785175         1.301837
