19
Iteration:  3546
 C        -0.094296         0.228466        -0.059696
 C         1.469378         0.311066        -0.074491
 O         2.325506         0.127254         1.195362
 C         3.279368         0.580603         0.163057
 C         2.559859        -0.322187        -0.964617
 C         2.503730         0.369047        -2.346486
 C         2.231501         1.833095        -1.847349
 C         2.182782         1.662596        -0.331265
 O         2.021996         2.814287         0.450399
 H        -0.457856         1.116433         0.564264
 H        -0.580012         0.320259        -1.026430
 H        -0.510982        -0.590688         0.568938
 H         4.220038         0.942043         0.596403
 H         2.753973        -1.389836        -0.723677
 H         3.505308         0.366178        -2.755928
 H         1.725398         0.104274        -3.103326
 H         3.144682         2.535838        -2.084401
 H         1.325838         2.186852        -2.274874
 H         1.617630         2.528920         1.305430
