19
Iteration:  4289
 C        -0.016925        -0.040298         0.081772
 C         1.425687         0.392948        -0.151776
 O         2.186966         0.216821         1.205731
 C         3.187367         0.586553         0.213049
 C         2.505426        -0.351026        -0.955062
 C         2.451303         0.422692        -2.408872
 C         2.428202         1.917846        -1.830279
 C         2.239496         1.684387        -0.372118
 O         2.069582         2.852918         0.447171
 H        -0.379802         0.666082         0.768666
 H        -0.762348         0.245578        -0.751634
 H        -0.201411        -1.200395         0.243054
 H         4.273737         0.630695         0.384212
 H         2.621668        -1.390096        -0.759212
 H         3.211559         0.201904        -3.213033
 H         1.534181         0.070996        -2.936519
 H         3.227962         2.520594        -2.176335
 H         1.535374         2.435695        -2.424880
 H         2.075437         2.495130         1.371162
