19
Iteration:  3018charge 0 multiplicity 1
 C         0.010972         0.197329         0.128248
 C         1.392828         0.396310        -0.041527
 O         2.247379         0.091659         1.173734
 C         3.206483         0.571626         0.106046
 C         2.551848        -0.294608        -0.975752
 C         2.604620         0.380583        -2.328052
 C         2.357379         1.852895        -1.851646
 C         2.253027         1.666113        -0.360056
 O         1.866833         2.844713         0.367412
 H        -0.582689         0.892663         0.666469
 H        -0.586153         0.118180        -0.775486
 H        -0.198599        -0.817550         0.637695
 H         4.260728         0.670214         0.318178
 H         2.666270        -1.395268        -0.962601
 H         3.535865         0.133754        -2.841949
 H         1.653284         0.065831        -2.921569
 H         3.177441         2.537751        -2.103032
 H         1.448717         2.273750        -2.142597
 H         2.154789         2.441270         1.206201
