19
Iteration:  1240charge 0 multiplicity 1
 C        -0.088281         0.171152         0.194831
 C         1.352857         0.421701        -0.045967
 O         2.267878         0.129432         1.130647
 C         3.172043         0.588510         0.104784
 C         2.552908        -0.286632        -1.036819
 C         2.626927         0.371901        -2.361099
 C         2.330183         1.770968        -1.868522
 C         2.257551         1.664147        -0.347665
 O         1.942567         2.881321         0.458341
 H        -0.494259         0.849171         0.884502
 H        -0.646919         0.218610        -0.788767
 H        -0.136714        -0.808650         0.478289
 H         4.186718         0.485031         0.429941
 H         2.785358        -1.398012        -0.890940
 H         3.582989         0.306631        -2.903094
 H         1.728218        -0.180040        -2.910360
 H         3.191538         2.417660        -2.324450
 H         1.429989         2.063232        -2.444156
 H         2.436305         2.602548         1.240387
