19
Iteration:  2997charge 0 multiplicity 1
 C        -0.022566         0.303691         0.111521
 C         1.447302         0.352098        -0.036874
 O         2.383832         0.139164         1.141385
 C         3.307140         0.583277         0.114849
 C         2.464151        -0.366942        -0.979989
 C         2.532229         0.358318        -2.345933
 C         2.468637         1.864372        -1.951870
 C         2.128119         1.683981        -0.297832
 O         1.735221         2.768921         0.470037
 H        -0.252600         1.236352         0.653237
 H        -0.593735         0.364975        -0.838876
 H        -0.434273        -0.597149         0.702314
 H         4.330528         0.715268         0.439858
 H         2.712681        -1.458567        -0.970305
 H         3.557031         0.132884        -2.684514
 H         1.862147        -0.114277        -3.175169
 H         3.488058         2.279577        -2.203116
 H         1.782702         2.349479        -2.573867
 H         1.621635         2.359210         1.371566
