19
Iteration:  4470
 C         0.015136         0.035086        -0.055494
 C         1.428462         0.335619         0.011414
 O         2.190014         0.117186         1.229098
 C         3.224829         0.561946         0.231053
 C         2.538448        -0.284270        -0.915783
 C         2.367014         0.385559        -2.308783
 C         2.307224         1.947812        -1.904335
 C         2.302391         1.745645        -0.426801
 O         2.078033         2.882650         0.374839
 H        -0.687235         0.434452         0.784036
 H        -0.354482         0.286366        -1.039134
 H        -0.057460        -1.078034         0.031394
 H         4.238787         0.614846         0.610140
 H         2.774836        -1.367906        -0.796483
 H         3.303040         0.060615        -2.835203
 H         1.493029         0.145715        -2.944901
 H         3.277901         2.475522        -2.197406
 H         1.400529         2.358819        -2.245578
 H         2.006401         2.493419         1.265754
