19
Iteration:  1076
 C        -0.123165         0.040068         0.127316
 C         1.397043         0.331387        -0.082223
 O         2.264479         0.094731         1.135276
 C         3.185881         0.665968         0.161949
 C         2.512046        -0.306238        -0.944582
 C         2.506470         0.400625        -2.349434
 C         2.387876         1.898295        -1.889631
 C         2.178692         1.712656        -0.375535
 O         2.106575         2.869207         0.414919
 H        -0.503207         0.804849         0.835434
 H        -0.560497         0.055783        -0.930715
 H        -0.139966        -0.973897         0.460681
 H         4.168995         0.763599         0.674500
 H         2.533833        -1.420659        -0.746364
 H         3.335188         0.130073        -2.854937
 H         1.644282         0.025461        -2.933494
 H         3.334588         2.531501        -2.002290
 H         1.620395         2.384782        -2.525442
 H         1.978976         2.509065         1.310626
