19
Iteration:  3852
 C        -0.016371         0.321465         0.006329
 C         1.438852         0.439756        -0.048574
 O         2.318517         0.033077         1.106704
 C         3.290429         0.559235         0.118805
 C         2.502205        -0.283785        -0.917005
 C         2.603771         0.421675        -2.326846
 C         2.195460         1.834016        -1.894730
 C         2.282752         1.697640        -0.326933
 O         1.891258         2.706971         0.522923
 H        -0.441373         0.921931         0.776669
 H        -0.244790         0.776016        -0.945825
 H        -0.495070        -0.746522         0.179730
 H         4.345044         0.631567         0.355161
 H         2.708014        -1.342403        -0.768669
 H         3.588165         0.386001        -2.853770
 H         1.786194        -0.050795        -3.012160
 H         3.020636         2.502412        -2.417809
 H         1.160154         2.133030        -2.148513
 H         1.539746         2.207044         1.301026
