19
Iteration:  3592
 C        -0.009260        -0.080595        -0.089018
 C         1.400502         0.354565        -0.108777
 O         2.268277         0.289591         1.265540
 C         3.205733         0.552381         0.191203
 C         2.431018        -0.277606        -0.987061
 C         2.375973         0.405163        -2.331958
 C         2.410019         1.953254        -1.830150
 C         2.294755         1.667123        -0.337720
 O         2.082382         2.832852         0.421702
 H        -0.680566         0.597619         0.379970
 H        -0.371752        -0.146650        -1.094735
 H        -0.173379        -1.126560         0.437430
 H         4.346476         0.590656         0.326927
 H         2.285804        -1.375022        -0.947793
 H         3.068576         0.199861        -3.097466
 H         1.399245        -0.043790        -2.615035
 H         3.457149         2.366624        -2.005603
 H         1.573438         2.655750        -1.970426
 H         2.069903         2.583635         1.383565
