19
Iteration:  1164
 C         0.015533         0.197576         0.046858
 C         1.456772         0.382204        -0.088378
 O         2.294913         0.061284         1.133373
 C         3.149569         0.594628         0.101787
 C         2.565526        -0.286235        -0.946755
 C         2.492826         0.336866        -2.216460
 C         2.249205         1.829020        -1.915764
 C         2.230124         1.700769        -0.355760
 O         1.987027         2.863238         0.461447
 H        -0.430243         0.977501         0.625229
 H        -0.418876         0.330016        -1.039246
 H        -0.345281        -0.735705         0.336581
 H         4.210389         0.675230         0.482365
 H         2.540157        -1.399919        -0.683713
 H         3.449181         0.162108        -2.594074
 H         1.712713        -0.049893        -2.964620
 H         3.102286         2.487463        -2.349726
 H         1.341313         2.276251        -2.321691
 H         2.298537         2.569379         1.354665
