19
Iteration:  3594charge 0 multiplicity 1
 C        -0.016452        -0.081417        -0.069859
 C         1.404912         0.339352        -0.104630
 O         2.255695         0.289610         1.273175
 C         3.195059         0.552951         0.182539
 C         2.423760        -0.262082        -0.994364
 C         2.381256         0.405585        -2.343415
 C         2.425689         1.946254        -1.818746
 C         2.298109         1.653878        -0.342886
 O         2.092419         2.840289         0.410426
 H        -0.707883         0.536112         0.413299
 H        -0.352387        -0.141149        -1.124461
 H        -0.131243        -1.091669         0.429153
 H         4.320792         0.609907         0.322912
 H         2.379936        -1.355770        -0.929334
 H         3.108173         0.215290        -3.120946
 H         1.400780         0.029827        -2.564839
 H         3.366885         2.396540        -2.005523
 H         1.564515         2.696963        -1.926538
 H         2.022944         2.523227         1.335631
