19
Iteration:  4196charge 0 multiplicity 1
 C         0.010947         0.272326        -0.001129
 C         1.430847         0.370519        -0.175564
 O         2.313873         0.101569         1.128405
 C         3.238038         0.638788         0.187369
 C         2.533969        -0.331047        -0.979956
 C         2.533091         0.351942        -2.213740
 C         2.186803         1.826710        -1.905377
 C         2.180474         1.675517        -0.331867
 O         2.032393         2.740416         0.507271
 H        -0.361334         1.215557         0.642363
 H        -0.598772         0.369787        -0.926087
 H        -0.335608        -0.588383         0.387583
 H         4.315313         0.807321         0.418338
 H         2.737685        -1.452436        -0.969921
 H         3.514573         0.282329        -2.722222
 H         1.807740         0.140440        -3.011956
 H         2.973781         2.625786        -2.250462
 H         1.193453         2.237619        -2.162005
 H         1.733095         2.369606         1.337276
