19
Iteration:   235charge 0 multiplicity 1
 C        -0.089079        -0.045515        -0.019898
 C         1.416117         0.415083        -0.073967
 O         2.187822         0.156902         1.141449
 C         3.249157         0.652260         0.184887
 C         2.456156        -0.253592        -0.901039
 C         2.387597         0.367186        -2.272305
 C         2.361619         1.841988        -1.885632
 C         2.386641         1.727929        -0.367138
 O         2.098798         2.855440         0.428311
 H        -0.663061         0.498609         0.683982
 H        -0.686947        -0.074524        -0.982502
 H         0.026859        -1.056772         0.320343
 H         4.314330         0.630902         0.501984
 H         2.719084        -1.286950        -0.792550
 H         3.265288         0.062536        -2.931374
 H         1.485814         0.097730        -2.828936
 H         3.235639         2.393840        -2.319890
 H         1.597008         2.581023        -2.249214
 H         1.988764         2.641761         1.372462
