19
Iteration:  1793charge 0 multiplicity 1
 C        -0.058484         0.083566        -0.118132
 C         1.399185         0.408552         0.010547
 O         2.351854         0.156943         1.231518
 C         3.232505         0.544833         0.071443
 C         2.444304        -0.303372        -0.978533
 C         2.478874         0.341762        -2.341988
 C         2.274180         1.824120        -1.869000
 C         2.200323         1.770597        -0.299891
 O         2.108081         2.846618         0.500451
 H        -0.709421         0.628385         0.680072
 H        -0.501379         0.206222        -1.165968
 H        -0.296242        -0.908472         0.209352
 H         4.297371         0.608918         0.340732
 H         2.646858        -1.329454        -0.685654
 H         3.504526         0.201603        -2.809934
 H         1.756574         0.153116        -3.103702
 H         2.997178         2.617090        -2.020440
 H         1.436770         2.290391        -2.355586
 H         1.750763         2.580154         1.380187
