19
Iteration:  2910
 C        -0.067659        -0.113195        -0.054572
 C         1.326407         0.381790         0.022321
 O         2.282184         0.189234         1.271181
 C         3.102907         0.564675         0.125382
 C         2.449905        -0.269264        -0.972710
 C         2.583971         0.437359        -2.273424
 C         2.207359         1.838048        -1.820125
 C         2.203295         1.691264        -0.362452
 O         2.264150         2.923090         0.335134
 H        -0.784610         0.397166         0.617137
 H        -0.377659         0.196025        -1.075839
 H        -0.227365        -1.273869         0.080125
 H         4.136464         0.545724         0.396471
 H         2.619697        -1.368683        -0.861114
 H         3.577274         0.510699        -2.694669
 H         1.905329         0.066669        -3.110205
 H         3.099504         2.497225        -2.223815
 H         1.318517         2.302610        -2.198571
 H         2.207011         3.108818         1.270344
