19
Iteration:  4632charge 0 multiplicity 1
 C        -0.040693         0.077073        -0.053480
 C         1.437725         0.377624        -0.151779
 O         2.235743         0.176765         1.201818
 C         3.218404         0.664629         0.234923
 C         2.514889        -0.291772        -0.963632
 C         2.389149         0.318611        -2.371556
 C         2.377422         1.855389        -1.889646
 C         2.264161         1.676744        -0.283585
 O         2.071873         2.837990         0.482999
 H        -0.478051         0.854411         0.686626
 H        -0.671377         0.067170        -0.936821
 H        -0.097623        -0.857063         0.446516
 H         4.259955         0.783736         0.553511
 H         2.600950        -1.398775        -0.826683
 H         3.227626         0.139261        -2.979804
 H         1.558732         0.203618        -3.069266
 H         3.296958         2.458588        -2.291835
 H         1.469453         2.148858        -2.225748
 H         1.868095         2.372279         1.303358
