19
Iteration:  4271charge 0 multiplicity 1
 C        -0.074898         0.090856         0.117520
 C         1.392334         0.345652        -0.018804
 O         2.237234         0.104885         1.140094
 C         3.205735         0.588940         0.062587
 C         2.484269        -0.257045        -1.001055
 C         2.548736         0.371715        -2.311173
 C         2.406699         1.851379        -1.941511
 C         2.241428         1.762619        -0.324184
 O         2.007713         2.870337         0.471516
 H        -0.631924         0.419336         1.019193
 H        -0.741059         0.118028        -0.773472
 H        -0.150097        -0.938552         0.305836
 H         4.250605         0.705282         0.423604
 H         2.642568        -1.370941        -1.011140
 H         3.472110         0.147742        -2.779901
 H         1.781227        -0.021017        -3.018922
 H         3.346077         2.501993        -2.098608
 H         1.643812         2.390498        -2.384326
 H         1.900844         2.543756         1.399230
