19
Iteration:  4818charge 0 multiplicity 1
 C        -0.075319        -0.011576        -0.091348
 C         1.363687         0.335576        -0.132543
 O         2.211395         0.097971         1.274197
 C         3.203041         0.621904         0.145510
 C         2.549456        -0.275122        -0.884088
 C         2.430669         0.418247        -2.249470
 C         2.286468         1.950234        -1.870593
 C         2.277313         1.692385        -0.373528
 O         2.178027         2.851588         0.395786
 H        -0.563860         0.857223         0.496789
 H        -0.524773        -0.015182        -1.103041
 H        -0.173902        -0.980613         0.508743
 H         4.259365         0.873217         0.515623
 H         2.602039        -1.385997        -0.873393
 H         3.222236         0.298375        -3.018807
 H         1.598445        -0.122394        -2.771884
 H         3.132893         2.554419        -2.360917
 H         1.377529         2.335430        -2.141931
 H         2.304584         2.756767         1.373715
