19
Iteration:  2536
 C        -0.028204        -0.050239         0.006112
 C         1.377275         0.365987        -0.079301
 O         2.200578         0.151770         1.174066
 C         3.144611         0.523409         0.167109
 C         2.554306        -0.288339        -0.908052
 C         2.361020         0.407304        -2.246077
 C         2.496504         1.947019        -1.843362
 C         2.213975         1.739509        -0.387986
 O         2.074181         2.875871         0.349473
 H        -0.472466         0.597642         0.759375
 H        -0.423226         0.159021        -1.007063
 H        -0.040096        -1.133700         0.215914
 H         4.180583         0.578789         0.421947
 H         2.822412        -1.355980        -0.828433
 H         2.964141         0.001729        -3.019572
 H         1.256500         0.298264        -2.588049
 H         3.503285         2.486084        -1.894902
 H         1.777989         2.650615        -2.276177
 H         2.482519         2.686007         1.206155
