19
Iteration:  1422charge 0 multiplicity 1
 C        -0.016022         0.201663         0.129859
 C         1.410753         0.325360        -0.017356
 O         2.271996         0.144735         1.174300
 C         3.206592         0.589242         0.115894
 C         2.553626        -0.342604        -0.895610
 C         2.485069         0.404925        -2.334497
 C         2.291251         1.910566        -1.875758
 C         2.195861         1.661159        -0.360147
 O         2.034887         2.770963         0.312262
 H        -0.566611         0.912824         0.814229
 H        -0.450502         0.347490        -0.889390
 H        -0.308004        -0.815074         0.387356
 H         4.304581         0.802130         0.442769
 H         2.680327        -1.460731        -0.925454
 H         3.543602         0.181638        -2.559856
 H         1.797347         0.090842        -3.074182
 H         3.168437         2.483079        -2.079894
 H         1.473540         2.495116        -2.394910
 H         1.807949         2.449006         1.212712
