19
Iteration:  3219charge 0 multiplicity 1
 C        -0.020142        -0.036175        -0.010766
 C         1.410723         0.478021        -0.113462
 O         2.242240         0.169661         1.190799
 C         3.194261         0.595778         0.175125
 C         2.483157        -0.248064        -0.922413
 C         2.528326         0.360878        -2.326881
 C         2.214808         1.827928        -1.877122
 C         2.209012         1.766831        -0.332111
 O         2.180945         2.840303         0.419364
 H        -0.676498         0.665406         0.635726
 H        -0.530317        -0.139562        -0.987170
 H        -0.207461        -0.978062         0.451278
 H         4.264656         0.682674         0.462069
 H         2.509302        -1.309103        -0.847309
 H         3.563817         0.079023        -2.591207
 H         1.772458        -0.114915        -2.993622
 H         2.886305         2.554718        -2.337531
 H         1.253478         2.053609        -2.144919
 H         2.043652         2.557163         1.350003
