19
Iteration:  3248
 C        -0.045876        -0.101971        -0.113500
 C         1.451507         0.325950         0.030528
 O         2.201645         0.266137         1.292693
 C         3.236268         0.557850         0.048515
 C         2.529710        -0.374123        -0.878570
 C         2.368829         0.423381        -2.296341
 C         2.293511         1.875888        -1.837609
 C         2.207204         1.778745        -0.309605
 O         2.159945         2.894593         0.354123
 H        -0.708915         0.543863         0.520808
 H        -0.346570         0.234913        -1.181249
 H        -0.323785        -1.168923        -0.197214
 H         4.284696         0.667574         0.271268
 H         2.763219        -1.500056        -0.943141
 H         3.352228         0.182853        -2.650456
 H         1.457130         0.023291        -2.832901
 H         3.232316         2.500488        -2.244453
 H         1.378617         2.496443        -2.201017
 H         2.517844         2.769296         1.265591
