19
Iteration:  3499
 C        -0.044933         0.284205         0.222825
 C         1.380550         0.370832        -0.090814
 O         2.318302         0.051629         1.123068
 C         3.167675         0.566437         0.138597
 C         2.465938        -0.358125        -0.994748
 C         2.775134         0.385334        -2.333697
 C         2.285090         1.824992        -1.929660
 C         2.200332         1.694833        -0.336688
 O         1.868880         2.857709         0.417701
 H        -0.470895         0.804952         1.159425
 H        -0.629479         0.564966        -0.733378
 H        -0.199194        -0.737594         0.431761
 H         4.203245         0.417602         0.238869
 H         2.456712        -1.444823        -1.078270
 H         3.915657         0.429270        -2.464175
 H         2.269968        -0.018748        -3.259415
 H         3.076222         2.546408        -2.158756
 H         1.301179         2.103041        -2.357537
 H         2.204037         2.705364         1.325981
