19
Iteration:   322charge 0 multiplicity 1
 C        -0.107841         0.291796         0.152171
 C         1.409712         0.294258         0.032848
 O         2.235086         0.043387         1.161966
 C         3.294113         0.509110         0.141117
 C         2.633487        -0.329176        -0.972096
 C         2.614931         0.430372        -2.346176
 C         2.252036         1.895113        -1.943925
 C         2.214615         1.644417        -0.334602
 O         1.939979         2.830393         0.351378
 H        -0.351234         1.120441         0.782646
 H        -0.477403         0.586899        -0.869126
 H        -0.596551        -0.575003         0.583063
 H         4.321516         0.774593         0.506038
 H         2.689876        -1.419516        -0.949118
 H         3.661727         0.272723        -2.784283
 H         2.044290        -0.015501        -3.168930
 H         2.929433         2.771818        -2.300214
 H         1.158238         2.272496        -2.195834
 H         1.971506         2.534587         1.297817
