19
Iteration:   171charge 0 multiplicity 1
 C        -0.138999         0.158395         0.055800
 C         1.375415         0.294101        -0.037217
 O         2.281026         0.084167         1.189558
 C         3.228118         0.578920         0.154065
 C         2.515156        -0.330046        -0.925660
 C         2.603448         0.380748        -2.342846
 C         2.318792         1.856039        -1.981076
 C         2.221523         1.745468        -0.375612
 O         2.024031         2.910058         0.475511
 H        -0.467466         0.969673         0.810275
 H        -0.547574         0.259798        -0.998626
 H        -0.399410        -0.887903         0.425191
 H         4.265006         0.646589         0.573564
 H         2.709393        -1.365816        -0.828810
 H         3.551653         0.082322        -2.948138
 H         1.814880        -0.018874        -2.950359
 H         3.032658         2.733976        -2.246870
 H         1.392737         2.131732        -2.534863
 H         2.171558         2.482977         1.359637
