19
Iteration:  3813charge 0 multiplicity 1
 C        -0.126393        -0.001788         0.112209
 C         1.313884         0.287300        -0.074058
 O         2.290398         0.136164         1.167004
 C         3.150915         0.525227         0.145537
 C         2.497970        -0.267239        -0.947873
 C         2.557936         0.557790        -2.310505
 C         2.405533         1.984031        -1.887677
 C         2.224101         1.650972        -0.410290
 O         2.072867         2.783395         0.408743
 H        -0.723797         0.756988         0.708580
 H        -0.652874        -0.060823        -0.905988
 H        -0.219537        -0.945525         0.562858
 H         4.260047         0.602922         0.361813
 H         2.579728        -1.358147        -0.890838
 H         3.512319         0.408421        -2.838370
 H         1.839749         0.132282        -2.971183
 H         3.194894         2.697864        -1.864514
 H         1.669754         2.638131        -2.379814
 H         2.324931         2.719958         1.344348
