19
Iteration:  4754
 C        -0.129156         0.260640         0.158004
 C         1.435257         0.394883        -0.072552
 O         2.333740         0.170406         1.126762
 C         3.244772         0.426088         0.046525
 C         2.513929        -0.334640        -0.988327
 C         2.649067         0.388657        -2.260254
 C         2.403190         1.885063        -1.893521
 C         2.209996         1.689686        -0.303168
 O         1.821397         2.768890         0.432892
 H        -0.321295         1.281322         0.652235
 H        -0.520267         0.143543        -0.878021
 H        -0.555368        -0.731824         0.671178
 H         4.350711         0.590668         0.233589
 H         2.364194        -1.414646        -0.998251
 H         3.629830         0.291434        -2.791217
 H         1.908135         0.030878        -3.043181
 H         3.281835         2.694380        -2.171492
 H         1.511671         2.335891        -2.366258
 H         1.827602         2.365942         1.366371
