19
Iteration:  2688charge 0 multiplicity 1
 C        -0.060447         0.095524         0.047425
 C         1.402901         0.320844        -0.013396
 O         2.248567         0.114971         1.191898
 C         3.199281         0.534987         0.113459
 C         2.559557        -0.329610        -0.983773
 C         2.437040         0.436487        -2.227919
 C         2.412192         1.902063        -1.834532
 C         2.234138         1.737997        -0.404051
 O         2.034800         2.874132         0.353181
 H        -0.540264         0.583403         0.979604
 H        -0.569257         0.338550        -0.923997
 H        -0.164966        -1.003654         0.179390
 H         4.223279         0.556439         0.449008
 H         2.896758        -1.388042        -0.965805
 H         3.122445         0.175756        -2.992798
 H         1.417151         0.139946        -2.685489
 H         3.509362         2.375227        -2.023336
 H         1.689986         2.581942        -2.398312
 H         1.553867         2.581432         1.162866
