19
Iteration:   699
 C        -0.109405         0.254707        -0.035538
 C         1.389458         0.294853        -0.049416
 O         2.348139         0.159490         1.214085
 C         3.257594         0.459816         0.093104
 C         2.543237        -0.391610        -0.941364
 C         2.595029         0.455684        -2.277944
 C         2.258300         1.914173        -1.815884
 C         2.213341         1.623526        -0.320918
 O         1.956960         2.824506         0.396056
 H        -0.529879         1.067430         0.541187
 H        -0.523214         0.396755        -1.133034
 H        -0.461018        -0.697568         0.308038
 H         4.342944         0.691440         0.206272
 H         2.774366        -1.493714        -0.709414
 H         3.433044         0.324418        -2.967037
 H         1.686889         0.114770        -2.929754
 H         2.881734         2.777074        -2.199144
 H         1.190032         2.262559        -2.042268
 H         2.440671         2.617317         1.211799
