19
Iteration:  1421charge 0 multiplicity 1
 C        -0.017177         0.212393         0.134287
 C         1.418204         0.318325        -0.021777
 O         2.265515         0.143084         1.172293
 C         3.202325         0.593340         0.103650
 C         2.557353        -0.345445        -0.887084
 C         2.491502         0.404214        -2.338928
 C         2.290826         1.911734        -1.870846
 C         2.189944         1.652518        -0.360877
 O         2.033168         2.769892         0.309472
 H        -0.543234         0.921502         0.823339
 H        -0.423011         0.341206        -0.840245
 H        -0.317378        -0.811025         0.392112
 H         4.318323         0.818707         0.463375
 H         2.674678        -1.459824        -0.923490
 H         3.530591         0.199551        -2.543999
 H         1.813725         0.125190        -3.087415
 H         3.167343         2.495923        -2.059865
 H         1.461326         2.477511        -2.375539
 H         1.828771         2.459290         1.208459
