19
Iteration:  1735
 C        -0.002014         0.342280         0.180608
 C         1.517545         0.394128        -0.045539
 O         2.267442         0.069785         1.155016
 C         3.230159         0.488759         0.129314
 C         2.541285        -0.323545        -1.050074
 C         2.569297         0.353898        -2.336897
 C         2.346618         1.873134        -1.883333
 C         2.248616         1.707082        -0.347362
 O         1.783025         2.748765         0.402152
 H        -0.254070         1.163242         0.929930
 H        -0.484778         0.611380        -0.724023
 H        -0.243815        -0.719648         0.433602
 H         4.113678         0.730368         0.537869
 H         2.600432        -1.405960        -0.958822
 H         3.490818         0.359325        -2.846427
 H         1.799532         0.020308        -3.117841
 H         3.243072         2.491011        -2.026006
 H         1.447785         2.269718        -2.361230
 H         1.942883         2.490725         1.323886
