19
Iteration:    38
 C        -0.023272        -0.131980        -0.056412
 C         1.339372         0.378107        -0.008393
 O         2.259980         0.261218         1.158484
 C         3.161287         0.671091         0.109152
 C         2.396041        -0.272825        -0.891185
 C         2.430725         0.346676        -2.266816
 C         2.361478         1.867930        -1.815362
 C         2.259889         1.743809        -0.358900
 O         2.173488         2.864774         0.410220
 H        -0.769405         0.356112         0.597448
 H        -0.490723        -0.021088        -1.205387
 H         0.032690        -1.221952         0.160618
 H         4.248196         0.706790         0.276734
 H         2.535801        -1.391376        -0.798357
 H         3.446336         0.270997        -2.680455
 H         1.704941        -0.090755        -3.034053
 H         3.360895         2.220481        -2.077556
 H         1.558322         2.511837        -2.335255
 H         2.216664         2.564861         1.325164
