19
Iteration:  1929charge 0 multiplicity 1
 C         0.026746         0.379925         0.039549
 C         1.434060         0.294460        -0.106253
 O         2.284750         0.066742         1.125056
 C         3.212992         0.652917         0.135986
 C         2.547710        -0.267241        -0.931382
 C         2.560230         0.381919        -2.343991
 C         2.251596         1.812039        -1.862255
 C         2.187292         1.671057        -0.355119
 O         2.000926         2.700489         0.496914
 H        -0.425823         0.987988         0.798533
 H        -0.516640         0.692354        -0.855722
 H        -0.576638        -0.538200         0.293324
 H         4.309732         0.861714         0.505153
 H         2.668582        -1.334762        -0.910609
 H         3.515436         0.218744        -2.884872
 H         1.769452        -0.052539        -2.929201
 H         2.910282         2.581624        -2.140731
 H         1.223144         2.094402        -2.241887
 H         1.795634         2.249148         1.364619
