19
Iteration:  1189charge 0 multiplicity 1
 C        -0.080489         0.365066         0.150471
 C         1.426082         0.340600        -0.013621
 O         2.336445         0.180430         1.191361
 C         3.285879         0.484709         0.073888
 C         2.557747        -0.381839        -1.015059
 C         2.657687         0.421909        -2.371206
 C         2.225289         1.883768        -1.825668
 C         2.232607         1.554268        -0.345024
 O         1.883645         2.761277         0.363267
 H        -0.381006         1.277673         0.681837
 H        -0.417148         0.557452        -0.930562
 H        -0.667058        -0.564051         0.481366
 H         4.310348         0.696988         0.556344
 H         2.566183        -1.446489        -0.865577
 H         3.659284         0.255600        -2.654528
 H         1.970449         0.119836        -3.101331
 H         2.699925         2.807031        -2.079156
 H         1.241176         1.919321        -2.229195
 H         1.729022         2.425223         1.287891
