19
Iteration:   575
 C        -0.007859        -0.057187        -0.001214
 C         1.361452         0.316122        -0.007869
 O         2.229644         0.089063         1.168820
 C         3.187453         0.625240         0.160364
 C         2.460914        -0.221273        -0.980412
 C         2.394545         0.349388        -2.287805
 C         2.468838         1.878575        -1.857469
 C         2.179101         1.803235        -0.340947
 O         2.137298         2.928697         0.390928
 H        -0.465498         0.646332         0.794575
 H        -0.476110         0.057736        -0.950276
 H        -0.181946        -1.143425         0.349964
 H         4.234399         0.734769         0.517284
 H         2.472120        -1.189025        -1.005108
 H         3.217042        -0.128604        -3.023748
 H         1.506452         0.229533        -2.766360
 H         3.459110         2.395815        -2.064677
 H         1.697405         2.492438        -2.395348
 H         2.019644         2.440519         1.241690
