19
Iteration:  2215charge 0 multiplicity 1
 C        -0.030386         0.056030        -0.000789
 C         1.385146         0.357469        -0.101943
 O         2.375516         0.086434         1.133676
 C         3.159622         0.579908         0.093838
 C         2.429157        -0.332690        -0.937363
 C         2.415993         0.408680        -2.209182
 C         2.501864         1.899761        -1.790075
 C         2.225559         1.715315        -0.367753
 O         1.982195         2.907855         0.425775
 H        -0.608623         0.754100         0.752734
 H        -0.373540         0.168259        -1.022569
 H        -0.179527        -0.991284         0.329421
 H         4.253951         0.554325         0.278146
 H         2.597887        -1.399927        -0.916913
 H         3.134280         0.074356        -2.952043
 H         1.386846         0.354949        -2.696829
 H         3.439091         2.380695        -2.060814
 H         1.756927         2.384310        -2.388109
 H         1.715285         2.743571         1.354847
