19
Iteration:  1602
 C        -0.115323         0.161183        -0.012094
 C         1.438804         0.348168        -0.075671
 O         2.314776         0.165489         1.179596
 C         3.267990         0.541499         0.114950
 C         2.507015        -0.311000        -0.924429
 C         2.497325         0.279084        -2.280049
 C         2.346207         1.884247        -1.862901
 C         2.328416         1.712840        -0.358659
 O         1.926313         2.863166         0.429591
 H        -0.455317         0.818478         0.831012
 H        -0.643859         0.472971        -1.006326
 H        -0.556735        -0.874981         0.301717
 H         4.290750         0.519331         0.230534
 H         2.674037        -1.439128        -0.896760
 H         3.343449         0.194817        -2.972417
 H         1.494921         0.075385        -2.769379
 H         3.203966         2.536478        -2.177650
 H         1.316917         2.234421        -2.002808
 H         2.119266         2.755750         1.370340
