19
Iteration:   202
 C         0.009693         0.009697        -0.074790
 C         1.419224         0.372473         0.006236
 O         2.262198         0.197374         1.177162
 C         3.288392         0.500529         0.144036
 C         2.384185        -0.356500        -0.897502
 C         2.441101         0.456257        -2.270321
 C         2.322067         1.908296        -1.811112
 C         2.164375         1.647956        -0.315187
 O         2.133949         2.928655         0.300694
 H        -0.731602         0.477795         0.519319
 H        -0.497307         0.013414        -1.106288
 H        -0.106883        -0.988057         0.281121
 H         4.311151         0.620155         0.568247
 H         2.449526        -1.434056        -0.888884
 H         3.418727         0.246353        -2.814101
 H         1.608708         0.218852        -2.952365
 H         3.286379         2.421706        -1.661786
 H         1.440347         2.411747        -2.328471
 H         2.023562         2.681230         1.228676
