19
Iteration:   427
 C        -0.122588         0.025997         0.020827
 C         1.351149         0.301741        -0.029527
 O         2.321925         0.027812         1.256593
 C         3.209307         0.648537         0.125812
 C         2.471272        -0.244150        -0.958816
 C         2.458230         0.380362        -2.322255
 C         2.426091         1.939598        -1.964287
 C         2.237555         1.704388        -0.292607
 O         2.079009         2.910795         0.367539
 H        -0.554225         0.690520         0.807473
 H        -0.694769         0.096138        -0.985914
 H        -0.352530        -0.969887         0.378821
 H         4.269815         0.788392         0.347773
 H         2.526456        -1.459615        -0.795946
 H         3.307994         0.059245        -2.840670
 H         1.499521         0.008306        -2.881097
 H         3.391187         2.432300        -2.037382
 H         1.692059         2.563481        -2.395347
 H         2.017518         2.840374         1.335471
