19
Iteration:   392charge 0 multiplicity 1
 C        -0.058099        -0.084775        -0.037012
 C         1.412306         0.430312        -0.128205
 O         2.213578         0.260338         1.215217
 C         3.240341         0.577992         0.151681
 C         2.474138        -0.289040        -0.929603
 C         2.344533         0.377012        -2.301350
 C         2.376293         1.936991        -1.864611
 C         2.284972         1.671817        -0.328425
 O         2.135104         2.805027         0.416823
 H        -0.565167         0.562641         0.751587
 H        -0.629432        -0.017314        -0.919193
 H         0.036439        -1.087181         0.384983
 H         4.257821         0.806144         0.487750
 H         2.492514        -1.422040        -0.821114
 H         3.191863         0.227469        -3.027689
 H         1.476786         0.006373        -2.837197
 H         3.395160         2.396816        -2.148445
 H         1.587511         2.602023        -2.227259
 H         2.171019         2.584787         1.362874
