19
Iteration:  2439charge 0 multiplicity 1
 C        -0.039209         0.296882         0.037041
 C         1.458636         0.434895        -0.042161
 O         2.173927         0.031107         1.138448
 C         3.270876         0.487237         0.139987
 C         2.585533        -0.325531        -0.983835
 C         2.646127         0.404428        -2.228975
 C         2.104938         1.822045        -1.932214
 C         2.213172         1.682384        -0.383680
 O         2.072526         2.864132         0.445082
 H        -0.340439         1.030865         0.712432
 H        -0.674635         0.350763        -0.876832
 H        -0.052197        -0.722894         0.550707
 H         4.293393         0.439984         0.497129
 H         2.726926        -1.406835        -1.113482
 H         3.722894         0.424346        -2.473513
 H         2.212026        -0.232364        -3.004415
 H         2.566247         2.701782        -2.269457
 H         1.055168         1.951290        -2.006846
 H         1.554655         2.654146         1.239999
