19
Iteration:  4893charge 0 multiplicity 1
 C        -0.054904         0.231619         0.136562
 C         1.391391         0.344220        -0.078979
 O         2.195630         0.097482         1.183912
 C         3.227129         0.541600         0.098043
 C         2.649939        -0.317753        -0.996320
 C         2.570659         0.368579        -2.373319
 C         2.374138         1.845339        -1.820024
 C         2.125717         1.641836        -0.419110
 O         1.937461         2.863496         0.444868
 H        -0.039184         0.742706         1.168129
 H        -0.680407         0.778269        -0.542470
 H        -0.285854        -0.803367         0.147837
 H         4.341576         0.708673         0.452542
 H         2.897217        -1.441296        -0.958421
 H         3.475671         0.402305        -3.025304
 H         1.724665         0.140989        -3.045334
 H         3.272332         2.519828        -1.835515
 H         1.554705         2.325308        -2.460247
 H         2.078477         2.524655         1.342969
