19
Iteration:  2653charge 0 multiplicity 1
 C        -0.044245         0.295378         0.096645
 C         1.486179         0.308342        -0.030764
 O         2.329475         0.105123         1.173657
 C         3.174117         0.560336         0.084423
 C         2.453616        -0.374475        -1.025923
 C         2.576078         0.373622        -2.329165
 C         2.425921         1.841068        -1.842901
 C         2.286584         1.707635        -0.375759
 O         1.756335         2.833560         0.469990
 H        -0.499937         0.990898         0.967239
 H        -0.606382         0.533678        -0.867301
 H        -0.267979        -0.728466         0.290179
 H         4.275406         0.475020         0.369289
 H         2.805147        -1.470177        -1.155709
 H         3.535901         0.041191        -2.838253
 H         1.680809         0.117648        -2.911282
 H         3.351944         2.445082        -2.133265
 H         1.537693         2.400123        -2.299530
 H         2.393158         2.774099         1.232902
