19
Iteration:  2174charge 0 multiplicity 1
 C        -0.012972        -0.028522         0.088675
 C         1.405738         0.367485        -0.096726
 O         2.200330         0.173354         1.171501
 C         3.146825         0.583353         0.228864
 C         2.479362        -0.314538        -1.045097
 C         2.411790         0.476865        -2.349770
 C         2.490352         1.902429        -1.852630
 C         2.244860         1.720858        -0.388962
 O         2.071759         2.813719         0.408202
 H        -0.378878         0.611977         0.900668
 H        -0.770274        -0.011278        -0.700946
 H        -0.053826        -1.035700         0.414833
 H         4.171004         0.672440         0.533930
 H         2.629800        -1.476620        -0.832529
 H         3.187848         0.271860        -3.010843
 H         1.424405         0.243483        -2.854916
 H         3.411041         2.552964        -1.985213
 H         1.687980         2.467424        -2.225216
 H         2.231191         2.561823         1.336582
