19
Iteration:  3087
 C         0.001726        -0.105740        -0.108558
 C         1.389497         0.392520        -0.077593
 O         2.269636         0.207438         1.243459
 C         3.154288         0.504822         0.142560
 C         2.434857        -0.276459        -0.898477
 C         2.457463         0.308740        -2.218705
 C         2.210863         1.921291        -1.878046
 C         2.277649         1.774700        -0.421438
 O         2.158291         2.935328         0.416057
 H        -0.688553         0.358383         0.731533
 H        -0.551622         0.218000        -1.045254
 H         0.060434        -1.132680        -0.006285
 H         4.239595         0.609126         0.304243
 H         2.756233        -1.358972        -0.868530
 H         3.510848         0.394166        -2.546310
 H         1.708006        -0.267421        -2.807210
 H         3.058303         2.623337        -2.166292
 H         1.269375         2.372165        -2.062812
 H         2.559237         2.811775         1.307974
