19
Iteration:  4598
 C        -0.125523         0.196157         0.138044
 C         1.378370         0.377586        -0.001314
 O         2.325047         0.159557         1.168925
 C         3.303198         0.495362         0.047977
 C         2.458315        -0.355880        -1.010962
 C         2.604532         0.450507        -2.302566
 C         2.423274         1.873865        -1.798773
 C         2.157699         1.628591        -0.356934
 O         1.899241         2.794198         0.346564
 H        -0.446208         1.180480         0.511784
 H        -0.541352         0.064917        -0.899769
 H        -0.401088        -0.570936         0.797858
 H         4.381180         0.404487         0.306850
 H         2.622694        -1.480924        -0.999924
 H         3.623824         0.364606        -2.618400
 H         1.969882         0.223879        -3.165704
 H         3.200125         2.653977        -1.960261
 H         1.577600         2.326463        -2.269673
 H         1.908334         2.717700         1.330473
