19
Iteration:  4962charge 0 multiplicity 1
 C        -0.130659         0.112339        -0.032480
 C         1.414061         0.365026        -0.080470
 O         2.291598         0.133898         1.145046
 C         3.289084         0.531591         0.109734
 C         2.523017        -0.343014        -0.923257
 C         2.510871         0.427517        -2.241819
 C         2.275914         1.911008        -1.828389
 C         2.242317         1.749565        -0.376478
 O         2.043046         2.813428         0.441469
 H        -0.618960         0.971695         0.514441
 H        -0.678172         0.158249        -1.015651
 H        -0.527992        -0.907172         0.370935
 H         4.357881         0.564113         0.551314
 H         2.733863        -1.373286        -0.863752
 H         3.495769         0.217829        -2.712414
 H         1.790125        -0.088659        -2.965035
 H         3.082944         2.689091        -2.226767
 H         1.313121         2.261695        -2.071471
 H         2.091491         2.446381         1.380349
