19
Iteration:  4568
 C        -0.076361         0.274485         0.209054
 C         1.401608         0.352867        -0.102823
 O         2.296675        -0.004176         1.172883
 C         3.216710         0.583108         0.118131
 C         2.515205        -0.313799        -0.995410
 C         2.670151         0.440057        -2.271216
 C         2.359439         1.864835        -1.921231
 C         2.121358         1.693517        -0.424498
 O         1.924532         2.788466         0.395313
 H        -0.371174         1.255626         0.690679
 H        -0.714713         0.159500        -0.606061
 H        -0.369225        -0.527725         0.885730
 H         4.257984         0.557368         0.441367
 H         2.791020        -1.365927        -1.004832
 H         3.688957         0.331894        -2.616751
 H         2.116105         0.038995        -3.118714
 H         3.149009         2.685520        -2.164043
 H         1.446714         2.130261        -2.401603
 H         1.850950         2.581737         1.323721
