19
Iteration:  2337charge 0 multiplicity 1
 C        -0.094253         0.067215         0.072940
 C         1.444325         0.317671        -0.012731
 O         2.240176         0.117142         1.179741
 C         3.253048         0.540503         0.138985
 C         2.488257        -0.296076        -0.986179
 C         2.470407         0.460168        -2.333035
 C         2.477942         1.934164        -1.799008
 C         2.184752         1.676643        -0.369991
 O         2.010020         2.844233         0.326999
 H        -0.410715         0.745987         0.953695
 H        -0.466579         0.154227        -0.959815
 H        -0.336947        -0.926607         0.426896
 H         4.302146         0.603965         0.490882
 H         2.511725        -1.429436        -0.897006
 H         3.227329         0.112140        -2.991076
 H         1.396649         0.313506        -2.841236
 H         3.432403         2.522377        -2.013731
 H         1.693940         2.504488        -2.226061
 H         1.840490         2.756720         1.283062
