19
Iteration:  3943
 C        -0.009391        -0.096345         0.096811
 C         1.396482         0.366275        -0.044849
 O         2.108488         0.140268         1.148799
 C         3.155465         0.559713         0.075289
 C         2.405011        -0.275663        -1.005519
 C         2.521344         0.521602        -2.367554
 C         2.429749         1.971003        -1.826488
 C         2.269120         1.683818        -0.280152
 O         2.150149         2.840743         0.424933
 H        -0.671567         0.456843         0.837921
 H        -0.563326        -0.335106        -0.883399
 H         0.119858        -1.056025         0.556653
 H         4.236689         0.808471         0.331928
 H         2.779816        -1.309408        -0.980433
 H         3.436268         0.157265        -2.837612
 H         1.648312         0.301951        -3.057513
 H         3.449736         2.366472        -2.086533
 H         1.663975         2.603236        -2.208192
 H         1.632337         2.693120         1.245400
