19
Iteration:  4831
 C         0.011391        -0.013730        -0.077855
 C         1.439141         0.369684         0.035433
 O         2.201784         0.162124         1.171038
 C         3.154812         0.611536         0.179113
 C         2.436596        -0.274819        -0.935528
 C         2.446467         0.413457        -2.339432
 C         2.294366         1.839479        -1.843370
 C         2.228652         1.718876        -0.323999
 O         2.197200         2.877282         0.393736
 H        -0.761739         0.612400         0.520159
 H        -0.281415        -0.036348        -1.166256
 H        -0.162427        -1.160511         0.240410
 H         4.250442         0.682096         0.420085
 H         2.609750        -1.322998        -0.798633
 H         3.465061         0.151129        -2.682977
 H         1.556646         0.223220        -3.006783
 H         3.129839         2.628631        -2.116417
 H         1.373494         2.334885        -2.159428
 H         2.187805         2.432903         1.252308
