19
Iteration:  3731charge 0 multiplicity 1
 C        -0.048057         0.134253        -0.112086
 C         1.448732         0.347403        -0.084179
 O         2.311612         0.151009         1.205864
 C         3.246355         0.545923         0.151749
 C         2.515122        -0.349468        -1.002442
 C         2.443246         0.409320        -2.266398
 C         2.285920         1.927840        -1.875313
 C         2.216725         1.658105        -0.329333
 O         1.987399         2.824475         0.491284
 H        -0.357893         0.915771         0.644901
 H        -0.397817         0.464776        -1.052246
 H        -0.434652        -0.889992         0.275211
 H         4.271378         0.732664         0.427419
 H         2.750508        -1.444045        -1.084403
 H         3.413252         0.212551        -2.812188
 H         1.552476        -0.041710        -2.856232
 H         3.244682         2.492819        -1.716023
 H         1.390284         2.368499        -2.244200
 H         2.370834         2.642756         1.349535
