19
Iteration:  3758charge 0 multiplicity 1
 C        -0.051752        -0.112545        -0.015896
 C         1.371360         0.409922        -0.001143
 O         2.197280         0.113088         1.202258
 C         3.230747         0.541688         0.110629
 C         2.437350        -0.278347        -0.931251
 C         2.434373         0.512615        -2.318202
 C         2.421869         1.948826        -1.851708
 C         2.317671         1.723118        -0.370518
 O         2.124440         2.842850         0.402820
 H        -0.746955         0.567015         0.497846
 H        -0.347211        -0.091332        -1.124231
 H        -0.157603        -1.065069         0.452849
 H         4.336244         0.694956         0.318674
 H         2.504442        -1.368472        -0.848886
 H         3.252366         0.271426        -2.979792
 H         1.485225         0.247415        -2.744630
 H         3.343290         2.525288        -1.915324
 H         1.480206         2.497094        -2.146202
 H         1.654166         2.629230         1.215718
