19
Iteration:  4495charge 0 multiplicity 1
 C        -0.057428         0.052576        -0.175865
 C         1.351006         0.370566        -0.040838
 O         2.302217         0.195727         1.210892
 C         3.232547         0.605080         0.081692
 C         2.523903        -0.300398        -0.912543
 C         2.414909         0.336682        -2.259672
 C         2.323535         1.809977        -1.814138
 C         2.226211         1.684970        -0.325391
 O         2.101926         2.923820         0.476612
 H        -0.691886         0.433077         0.660969
 H        -0.519989         0.246455        -1.164998
 H        -0.084263        -1.114407         0.030316
 H         4.283006         0.868501         0.213739
 H         2.723286        -1.331617        -0.749557
 H         3.312829         0.119045        -2.987421
 H         1.514206         0.095282        -2.871433
 H         3.218952         2.304814        -2.018997
 H         1.341197         2.209228        -2.284210
 H         2.149381         2.694447         1.407466
