19
Iteration:  2940
 C         0.024591         0.068830        -0.006873
 C         1.405358         0.349203        -0.076969
 O         2.233700         0.107970         1.180080
 C         3.180839         0.597473         0.147004
 C         2.494574        -0.327899        -0.923803
 C         2.535275         0.356656        -2.283815
 C         2.288750         1.876763        -1.876203
 C         2.267046         1.752186        -0.365532
 O         2.049335         2.908029         0.419250
 H        -0.476725         0.756998         0.637565
 H        -0.467984         0.248660        -0.963474
 H        -0.328211        -0.922726         0.492766
 H         4.231080         0.488965         0.416523
 H         2.705104        -1.347716        -0.700030
 H         3.472428         0.218125        -2.846915
 H         1.617920        -0.058654        -2.882850
 H         2.963579         2.548553        -2.402540
 H         1.304809         2.155621        -2.222673
 H         1.981385         2.725116         1.385439
