19
Iteration:   243
 C        -0.108639        -0.010914         0.015510
 C         1.434167         0.369278        -0.088444
 O         2.202394         0.183069         1.120009
 C         3.267903         0.698734         0.180687
 C         2.455957        -0.340136        -0.925279
 C         2.461287         0.352810        -2.297747
 C         2.390124         1.882382        -1.826204
 C         2.241930         1.743822        -0.372098
 O         2.121321         2.830634         0.417779
 H        -0.515661         0.637805         0.739682
 H        -0.532071         0.026582        -1.034317
 H        -0.100644        -1.027277         0.347614
 H         4.289396         0.926664         0.514220
 H         2.450628        -1.505533        -0.753715
 H         3.193433         0.098726        -2.973222
 H         1.430552         0.211815        -2.834570
 H         3.301609         2.324595        -2.076686
 H         1.430383         2.413022        -2.250688
 H         2.049958         2.471703         1.347074
