19
Iteration:  3340
 C        -0.092706         0.294438         0.255658
 C         1.357139         0.279408        -0.057777
 O         2.284905         0.165434         1.130900
 C         3.198243         0.579310         0.014427
 C         2.523103        -0.371060        -0.956916
 C         2.753615         0.406978        -2.356797
 C         2.321024         1.816189        -1.907441
 C         2.134523         1.688652        -0.397942
 O         1.933015         2.777958         0.453619
 H        -0.265028         1.263696         0.830418
 H        -0.600658         0.340822        -0.700236
 H        -0.588251        -0.573170         0.777109
 H         4.240430         0.397963         0.376192
 H         2.828959        -1.397983        -0.767638
 H         3.820431         0.581450        -2.518205
 H         2.182224         0.115777        -3.226946
 H         3.140834         2.532563        -2.223345
 H         1.477611         2.043057        -2.518732
 H         1.818200         2.414582         1.365758
