19
Iteration:  2153charge 0 multiplicity 1
 C        -0.077005         0.035274         0.103477
 C         1.331355         0.368992        -0.031824
 O         2.237391         0.115032         1.111051
 C         3.249280         0.572615        -0.013785
 C         2.458866        -0.298245        -0.965432
 C         2.549035         0.367904        -2.255365
 C         2.362708         1.923309        -1.893838
 C         2.214968         1.762639        -0.281616
 O         2.085879         2.875480         0.488957
 H        -0.704632         0.650577         0.691735
 H        -0.484894         0.130050        -0.946881
 H        -0.210999        -1.006686         0.244200
 H         4.323441         0.546333         0.036932
 H         2.675993        -1.501104        -1.000614
 H         3.518059         0.185635        -2.692689
 H         1.785591        -0.076145        -2.949018
 H         3.340469         2.511107        -2.066902
 H         1.575479         2.466544        -2.392545
 H         1.823924         2.604838         1.409172
