19
Iteration:  2290charge 0 multiplicity 1
 C        -0.061186         0.271125         0.094705
 C         1.380361         0.362727         0.006197
 O         2.215378         0.117050         1.169181
 C         3.211887         0.522174         0.065517
 C         2.516115        -0.304841        -0.974339
 C         2.713969         0.422202        -2.340788
 C         2.181319         1.819980        -1.899748
 C         2.272298         1.679201        -0.399063
 O         2.032204         2.791989         0.503286
 H        -0.458022         1.007737         0.808371
 H        -0.296200         0.364430        -0.932276
 H        -0.360939        -0.741867         0.382991
 H         4.268396         0.740189         0.320401
 H         2.651329        -1.307218        -1.115285
 H         3.792637         0.428028        -2.706874
 H         2.101719        -0.116332        -3.047051
 H         2.636851         2.688196        -2.352972
 H         1.093521         1.853442        -2.286854
 H         1.918423         2.410224         1.413214
