19
Iteration:  4973charge 0 multiplicity 1
 C        -0.140045         0.097798        -0.051674
 C         1.430641         0.318628        -0.036370
 O         2.197529         0.107412         1.172730
 C         3.210229         0.678724         0.123523
 C         2.536798        -0.263053        -0.918103
 C         2.520526         0.394797        -2.292088
 C         2.238039         1.892649        -1.892567
 C         2.292361         1.668459        -0.335842
 O         2.139122         2.798888         0.467897
 H        -0.709855         0.843352         0.559418
 H        -0.401250        -0.009852        -1.131405
 H        -0.181090        -0.919522         0.520074
 H         4.331086         0.599875         0.320474
 H         2.656811        -1.293248        -0.791000
 H         3.467146         0.385495        -2.861124
 H         1.629678         0.208433        -2.960690
 H         3.123087         2.549708        -2.345439
 H         1.343168         2.286922        -2.273727
 H         2.179082         2.535216         1.423445
