19
Iteration:  4449
 C        -0.083277         0.031029         0.026712
 C         1.393720         0.354322        -0.108423
 O         2.215927         0.194818         1.198561
 C         3.261249         0.560445         0.082071
 C         2.564021        -0.346153        -0.989588
 C         2.529663         0.442651        -2.274715
 C         2.345443         1.877425        -1.755989
 C         2.217226         1.692088        -0.307144
 O         2.031011         2.856468         0.330701
 H        -0.358950         0.763356         0.894219
 H        -0.530526         0.352255        -0.883984
 H        -0.258561        -1.046036         0.336556
 H         4.318808         0.589495         0.312192
 H         2.461748        -1.390339        -0.797161
 H         3.367550         0.074641        -2.929416
 H         1.621169         0.086366        -2.808547
 H         3.263612         2.479707        -1.974682
 H         1.410167         2.318245        -2.110025
 H         1.904645         2.756794         1.282457
