19
Iteration:  1115
 C         0.005857        -0.157532        -0.032204
 C         1.394244         0.359763        -0.004135
 O         2.225819         0.279325         1.202194
 C         3.201102         0.533257         0.163718
 C         2.369920        -0.345245        -0.891403
 C         2.393699         0.459575        -2.234944
 C         2.435466         1.980682        -1.878545
 C         2.244219         1.696895        -0.423104
 O         2.157699         2.885386         0.352539
 H        -0.767749         0.228071         0.661932
 H        -0.453582        -0.091365        -0.956078
 H         0.007777        -1.281895         0.223411
 H         4.260917         0.508655         0.448920
 H         2.370408        -1.416605        -0.938064
 H         3.224999         0.071266        -3.042717
 H         1.409832         0.408430        -2.762478
 H         3.366932         2.496318        -2.033340
 H         1.664727         2.734267        -2.263882
 H         2.134479         2.532816         1.264322
