19
Iteration:  1739
 C         0.003237         0.353617         0.175537
 C         1.493646         0.353910        -0.070568
 O         2.259235         0.106110         1.146144
 C         3.248275         0.461896         0.186320
 C         2.583370        -0.309001        -1.045689
 C         2.558785         0.361066        -2.383584
 C         2.333226         1.842528        -1.908891
 C         2.234584         1.711018        -0.305520
 O         1.782916         2.740165         0.403851
 H        -0.264312         1.135987         0.970566
 H        -0.510254         0.637933        -0.800923
 H        -0.273022        -0.635700         0.432101
 H         4.359430         0.750099         0.497158
 H         2.497837        -1.380768        -0.956380
 H         3.522428         0.377207        -2.978617
 H         1.780088         0.042990        -3.021294
 H         3.213864         2.437877        -2.034318
 H         1.404353         2.364108        -2.163696
 H         2.014045         2.563963         1.349626
