19
Iteration:   377charge 0 multiplicity 1
 C        -0.017019        -0.009725        -0.000080
 C         1.351040         0.413077        -0.042202
 O         2.262700         0.221446         1.235910
 C         3.181336         0.556303         0.119694
 C         2.457544        -0.283346        -0.921781
 C         2.447897         0.416996        -2.304532
 C         2.372222         1.834295        -1.936829
 C         2.313511         1.787325        -0.377851
 O         2.106302         2.825275         0.466626
 H        -0.734798         0.493585         0.625202
 H        -0.460965         0.024927        -1.035714
 H         0.031470        -1.089630         0.265951
 H         4.260711         0.327290         0.305773
 H         2.478936        -1.318284        -0.840884
 H         3.317488         0.014318        -2.932994
 H         1.497131         0.244311        -2.796664
 H         3.134134         2.646932        -2.323276
 H         1.336273         2.312337        -2.263448
 H         1.849677         2.172435         1.193842
