19
Iteration:  1704
 C        -0.199970         0.114082         0.158238
 C         1.380195         0.344183        -0.018037
 O         2.373076         0.144722         1.156834
 C         3.184913         0.532985         0.043144
 C         2.482400        -0.303028        -1.030171
 C         2.630262         0.395079        -2.309885
 C         2.364934         1.898443        -1.816228
 C         2.198468         1.661125        -0.360182
 O         2.016568         2.840206         0.392891
 H        -0.575220         0.991158         0.845876
 H        -0.649010         0.281176        -0.806319
 H        -0.579658        -0.830920         0.581219
 H         4.205793         0.722816         0.311139
 H         2.582396        -1.355205        -0.958250
 H         3.650052         0.359638        -2.643576
 H         1.995334        -0.002009        -3.127840
 H         3.226620         2.511187        -1.964146
 H         1.656195         2.321977        -2.459746
 H         1.648363         2.667877         1.290463
