19
Iteration:  4698
 C        -0.154236         0.109082         0.031895
 C         1.433676         0.361349        -0.006885
 O         2.201731         0.110625         1.162637
 C         3.226367         0.518036         0.070435
 C         2.546625        -0.325762        -0.963601
 C         2.581135         0.384985        -2.333319
 C         2.310404         1.836557        -1.840722
 C         2.245828         1.755281        -0.299451
 O         2.065693         2.920889         0.402767
 H        -0.602056         0.539810         1.000618
 H        -0.539438         0.532413        -0.888211
 H        -0.098136        -0.963821         0.124853
 H         4.313139         0.484933         0.285829
 H         2.679974        -1.403370        -0.725631
 H         3.571678         0.215981        -2.772648
 H         1.878360         0.021324        -3.099358
 H         3.023897         2.704806        -2.220978
 H         1.329082         2.081140        -2.116698
 H         1.773713         2.754813         1.333795
