19
Iteration:  1917
 C        -0.136510         0.362247         0.054526
 C         1.469593         0.335589        -0.037449
 O         2.274620         0.081867         1.164032
 C         3.223833         0.616385         0.063970
 C         2.605945        -0.339630        -0.984598
 C         2.538596         0.406692        -2.277550
 C         2.287969         1.887267        -1.869395
 C         2.256630         1.607769        -0.372526
 O         1.936484         2.684161         0.459742
 H        -0.011550         1.129084         0.773946
 H        -0.513250         0.851721        -0.922757
 H        -0.438294        -0.677764         0.425260
 H         4.368256         0.778123         0.375380
 H         2.863811        -1.383400        -0.766460
 H         3.504771         0.471375        -2.905656
 H         1.789043         0.033909        -2.929874
 H         3.038869         2.503145        -2.269519
 H         1.282249         2.358640        -2.125977
 H         1.669926         2.295753         1.310337
