19
Iteration:  2729
 C        -0.048165        -0.097648        -0.025722
 C         1.386506         0.489062        -0.050797
 O         2.226045         0.158744         1.191972
 C         3.101734         0.577452         0.100392
 C         2.480938        -0.305042        -0.894044
 C         2.467626         0.456466        -2.207709
 C         2.309672         1.898923        -1.892116
 C         2.204382         1.695181        -0.355856
 O         2.209711         2.855903         0.399742
 H        -0.766819         0.413119         0.714248
 H        -0.376560         0.084887        -1.066334
 H         0.113334        -1.076506         0.269006
 H         4.199353         0.640296         0.326837
 H         2.559747        -1.432308        -0.983418
 H         3.536666         0.349151        -2.631224
 H         1.789450         0.004061        -2.915881
 H         3.087946         2.415436        -2.287875
 H         1.417220         2.300489        -2.398803
 H         2.519072         2.645032         1.289154
