19
Iteration:  1571charge 0 multiplicity 1
 C         0.044865         0.335737         0.187731
 C         1.452745         0.301040        -0.067315
 O         2.256715         0.095574         1.152835
 C         3.144797         0.592573         0.124309
 C         2.518804        -0.356293        -0.954172
 C         2.637077         0.340177        -2.279373
 C         2.303250         1.907552        -1.880455
 C         2.195622         1.667274        -0.469950
 O         1.925818         2.746901         0.393470
 H        -0.223438         1.172475         0.942832
 H        -0.616527         0.733897        -0.592996
 H        -0.446645        -0.657741         0.570484
 H         4.201250         0.856064         0.271450
 H         2.653195        -1.479496        -0.800031
 H         3.578483         0.396027        -2.817615
 H         1.972079        -0.067551        -3.151201
 H         3.160389         2.628955        -2.100690
 H         1.394537         2.330751        -2.369536
 H         1.725081         2.285403         1.243161
