19
Iteration:  3196charge 0 multiplicity 1
 C        -0.080811         0.175585         0.139566
 C         1.425568         0.255221         0.019602
 O         2.237816         0.145095         1.135086
 C         3.177775         0.584940         0.061433
 C         2.542446        -0.334923        -0.952970
 C         2.678866         0.395499        -2.338860
 C         2.254662         1.902535        -1.907716
 C         2.175574         1.708608        -0.358837
 O         2.061534         2.847601         0.403447
 H        -0.604032         1.021313         0.719156
 H        -0.598555        -0.181367        -0.796828
 H        -0.274028        -0.650596         0.787582
 H         4.232523         0.587287         0.359843
 H         2.621658        -1.426851        -0.946833
 H         3.742020         0.332829        -2.703865
 H         1.946151        -0.194692        -2.955874
 H         2.991263         2.688097        -2.236026
 H         1.325691         2.227590        -2.181621
 H         1.628096         2.609393         1.256494
