19
Iteration:   558
 C        -0.075180         0.006639        -0.009137
 C         1.433307         0.267644        -0.029876
 O         2.235845         0.180437         1.209883
 C         3.186753         0.564481         0.117035
 C         2.499772        -0.385807        -0.903002
 C         2.411579         0.495674        -2.331475
 C         2.360904         1.910424        -1.808872
 C         2.236606         1.651652        -0.342985
 O         2.134294         2.925653         0.363392
 H        -0.644094         0.676656         0.587941
 H        -0.490921         0.119323        -1.074523
 H        -0.261063        -0.998937         0.248930
 H         4.258969         0.661397         0.316578
 H         2.879988        -1.561944        -0.773205
 H         3.167559         0.417617        -3.058672
 H         1.513448         0.029102        -2.931023
 H         3.323786         2.376808        -2.047486
 H         1.648269         2.644712        -2.185988
 H         1.925107         2.954557         1.316855
