19
Iteration:   165charge 0 multiplicity 1
 C        -0.103613         0.211837         0.077238
 C         1.421758         0.310714        -0.046273
 O         2.240935         0.114122         1.122719
 C         3.264643         0.566159         0.171136
 C         2.552097        -0.320519        -0.930507
 C         2.602146         0.370088        -2.346371
 C         2.299075         1.836418        -1.983774
 C         2.147632         1.704131        -0.388496
 O         2.009279         2.880072         0.509358
 H        -0.334139         1.001043         0.813391
 H        -0.552198         0.368251        -0.842257
 H        -0.170507        -0.791771         0.508957
 H         4.208398         0.574372         0.709043
 H         2.589686        -1.472298        -0.841560
 H         3.561911         0.178977        -2.730412
 H         1.870721        -0.099599        -3.086385
 H         3.003395         2.585573        -2.249269
 H         1.445998         2.189405        -2.574146
 H         2.052365         2.558158         1.411815
