19
Iteration:  3518charge 0 multiplicity 1
 C        -0.013085         0.273282         0.144386
 C         1.485504         0.371906        -0.031573
 O         2.188495         0.082753         1.179969
 C         3.274723         0.433375         0.074360
 C         2.528805        -0.289833        -1.002631
 C         2.702424         0.428981        -2.285251
 C         2.214088         1.884949        -1.841787
 C         2.248727         1.687996        -0.374848
 O         1.885586         2.758934         0.329021
 H        -0.196611         1.070912         0.814685
 H        -0.585970         0.599175        -0.745487
 H        -0.540306        -0.620758         0.597128
 H         4.275392         0.682809         0.490752
 H         2.583083        -1.350888        -0.740462
 H         3.772729         0.409644        -2.605684
 H         2.170612         0.134405        -3.185559
 H         2.734374         2.702084        -2.175034
 H         1.127291         1.884826        -2.214537
 H         2.063070         2.668165         1.291621
