19
Iteration:   116
 C        -0.099518         0.251987         0.129203
 C         1.426430         0.361666        -0.009864
 O         2.353731         0.175936         1.203371
 C         3.268512         0.435008         0.129126
 C         2.506557        -0.331681        -0.996382
 C         2.627157         0.403749        -2.327443
 C         2.280674         1.868951        -1.882867
 C         2.144543         1.674086        -0.400625
 O         1.868935         2.785559         0.393192
 H        -0.421913         1.211911         0.674442
 H        -0.238360         0.536526        -0.994248
 H        -0.539864        -0.705858         0.481930
 H         4.352829         0.507872         0.376666
 H         2.554454        -1.402516        -1.070119
 H         3.743323         0.471693        -2.616085
 H         2.060668        -0.118266        -3.094067
 H         3.309232         2.388938        -1.926503
 H         1.631009         2.482111        -2.506219
 H         2.011655         2.418225         1.306163
