19
Iteration:  1395charge 0 multiplicity 1
 C        -0.094927         0.339905         0.249809
 C         1.387033         0.304189        -0.096795
 O         2.303035         0.116085         1.155710
 C         3.181725         0.513929         0.116367
 C         2.606423        -0.323555        -1.017860
 C         2.720931         0.383118        -2.335420
 C         2.224936         1.814390        -1.901463
 C         2.209691         1.680188        -0.321642
 O         1.887852         2.811075         0.380609
 H        -0.199016         1.122008         0.943771
 H        -0.704528         0.569169        -0.637102
 H        -0.488253        -0.562951         0.740313
 H         4.260053         0.569640         0.250817
 H         2.793796        -1.367184        -1.163220
 H         3.750914         0.227471        -2.608384
 H         2.000669        -0.041290        -3.124459
 H         3.003403         2.564259        -2.276630
 H         1.320978         2.023349        -2.429704
 H         2.258815         2.654493         1.275008
