19
Iteration:   987
 C        -0.040523         0.209394         0.001155
 C         1.403315         0.275269        -0.139799
 O         2.287341         0.209305         1.261371
 C         3.195324         0.577634         0.110575
 C         2.539016        -0.302928        -0.933203
 C         2.592288         0.430635        -2.340383
 C         2.261081         1.887118        -1.828669
 C         2.196115         1.629910        -0.359882
 O         2.049278         2.730132         0.407998
 H        -0.446570         0.990090         0.758444
 H        -0.610807         0.416331        -0.883374
 H        -0.452893        -0.810565         0.345714
 H         4.209621         0.726693         0.371145
 H         2.643120        -1.358705        -0.939839
 H         3.365476         0.296720        -2.960057
 H         1.625437         0.003192        -2.786791
 H         3.013002         2.725082        -1.941610
 H         1.271293         2.148856        -2.264766
 H         2.128763         2.487518         1.342643
