19
Iteration:  4701
 C        -0.159754         0.132285         0.048146
 C         1.431575         0.344476        -0.025237
 O         2.190862         0.090595         1.159216
 C         3.245705         0.538950         0.060645
 C         2.536031        -0.340184        -0.945451
 C         2.606664         0.391206        -2.304295
 C         2.314527         1.849580        -1.871232
 C         2.225948         1.745212        -0.306574
 O         2.067157         2.928984         0.404830
 H        -0.500508         0.575754         0.991061
 H        -0.556240         0.545224        -0.844750
 H        -0.060092        -0.990445         0.202171
 H         4.300871         0.484753         0.370269
 H         2.715148        -1.393348        -0.811577
 H         3.563325         0.215094        -2.882262
 H         1.871210         0.003805        -3.066216
 H         3.019190         2.708772        -2.165383
 H         1.240936         2.092900        -2.128906
 H         1.755800         2.652856         1.306709
