19
Iteration:  4773charge 0 multiplicity 1
 C        -0.040545         0.239550         0.027855
 C         1.484349         0.388472        -0.051287
 O         2.321086         0.077532         1.230576
 C         3.222911         0.584414         0.120881
 C         2.383345        -0.330242        -0.950655
 C         2.559658         0.418793        -2.315954
 C         2.326118         1.899103        -1.878580
 C         2.256326         1.704066        -0.381185
 O         1.903148         2.745156         0.413020
 H        -0.516430         1.143141         0.506042
 H        -0.420198        -0.013411        -0.977807
 H        -0.030435        -0.575206         0.704335
 H         4.351596         0.508924         0.101218
 H         2.642458        -1.415865        -0.752775
 H         3.501387         0.027458        -2.655991
 H         1.902800         0.208363        -3.164298
 H         3.289855         2.451894        -1.966223
 H         1.601569         2.407667        -2.389145
 H         1.665015         2.386516         1.315029
