19
Iteration:  3393
 C        -0.056127         0.060840        -0.054527
 C         1.399524         0.274446        -0.004546
 O         2.266944         0.216046         1.255860
 C         3.246807         0.548145         0.101445
 C         2.489744        -0.380906        -0.940056
 C         2.487913         0.386585        -2.264455
 C         2.236161         1.925734        -1.826486
 C         2.248710         1.681831        -0.319902
 O         2.110351         2.890703         0.347931
 H        -0.663128         0.971766         0.221844
 H        -0.326138         0.011678        -1.106526
 H        -0.445958        -0.863374         0.325843
 H         4.226161         0.786270         0.522352
 H         2.758909        -1.405960        -1.124996
 H         3.353869         0.275880        -2.899773
 H         1.695722        -0.042823        -2.890355
 H         3.136987         2.612767        -2.147660
 H         1.419355         2.391815        -2.307892
 H         2.063715         2.738037         1.324715
