19
Iteration:  3550charge 0 multiplicity 1
 C        -0.087345         0.194050        -0.067065
 C         1.460778         0.346565        -0.056210
 O         2.314106         0.116746         1.197904
 C         3.251494         0.622249         0.120074
 C         2.567816        -0.306653        -0.947470
 C         2.495090         0.325404        -2.360470
 C         2.259359         1.852658        -1.841407
 C         2.192314         1.683180        -0.285769
 O         2.028065         2.796678         0.457871
 H        -0.388791         1.063149         0.430550
 H        -0.440861         0.297229        -1.097449
 H        -0.570547        -0.635154         0.561898
 H         4.298802         0.963363         0.489880
 H         2.609434        -1.407427        -0.816064
 H         3.493062         0.237085        -2.778385
 H         1.657738         0.086983        -2.978859
 H         3.065796         2.489721        -2.112634
 H         1.335357         2.273243        -2.384455
 H         1.683028         2.545771         1.324506
