19
Iteration:  2757charge 0 multiplicity 1
 C        -0.150529         0.001410        -0.003464
 C         1.412172         0.372873        -0.049875
 O         2.277445         0.230770         1.232555
 C         3.166387         0.590991         0.121679
 C         2.472012        -0.337301        -0.996071
 C         2.551352         0.405125        -2.344673
 C         2.207681         1.863201        -1.815949
 C         2.288074         1.714896        -0.343429
 O         2.159950         2.858692         0.427673
 H        -0.633631         0.759141         0.531698
 H        -0.477241        -0.006557        -1.041950
 H        -0.274468        -1.004678         0.567658
 H         4.167613         0.307537         0.438028
 H         2.750167        -1.375445        -1.017787
 H         3.625782         0.387347        -2.535691
 H         2.055283        -0.024100        -3.240780
 H         3.096359         2.540570        -2.266816
 H         1.275739         2.224231        -2.262637
 H         1.938045         2.577789         1.318719
