19
Iteration:   239
 C        -0.112168        -0.032052        -0.018542
 C         1.435259         0.395974        -0.080381
 O         2.189794         0.165521         1.121920
 C         3.269338         0.685356         0.193298
 C         2.445663        -0.293316        -0.905517
 C         2.419503         0.359299        -2.282030
 C         2.356552         1.853957        -1.852280
 C         2.330576         1.738806        -0.382454
 O         2.109458         2.836960         0.427388
 H        -0.633082         0.640510         0.806833
 H        -0.595422        -0.054721        -0.960867
 H         0.010757        -1.127939         0.342705
 H         4.322614         0.777866         0.500721
 H         2.596077        -1.364360        -0.771558
 H         3.253950         0.044452        -2.982823
 H         1.492409         0.201724        -2.815256
 H         3.292512         2.384815        -2.253250
 H         1.612282         2.497740        -2.220654
 H         2.010024         2.612587         1.367456
