19
Iteration:  1287charge 0 multiplicity 1
 C        -0.095588        -0.140485        -0.075117
 C         1.375703         0.408429         0.038479
 O         2.261208         0.224760         1.243441
 C         3.256356         0.562325         0.126638
 C         2.470180        -0.271599        -0.896432
 C         2.313024         0.367584        -2.345343
 C         2.416024         1.894764        -1.839839
 C         2.270180         1.722594        -0.334853
 O         2.170412         2.938625         0.376947
 H        -0.780673         0.366869         0.571365
 H        -0.446048        -0.054373        -1.096835
 H        -0.025768        -1.209158         0.223836
 H         4.416088         0.547035         0.179663
 H         2.620061        -1.322774        -0.972470
 H         3.091535         0.085697        -2.998126
 H         1.340984         0.075819        -2.744960
 H         3.321898         2.297446        -2.300900
 H         1.627341         2.482960        -2.244404
 H         1.750092         2.748220         1.250732
