19
Iteration:  4337
 C        -0.054559         0.059010        -0.165966
 C         1.401738         0.384359        -0.099917
 O         2.382472         0.105370         1.279239
 C         3.230222         0.613918         0.104202
 C         2.448314        -0.253561        -0.922396
 C         2.463456         0.344085        -2.319346
 C         2.290568         1.835708        -1.846270
 C         2.196297         1.647550        -0.301916
 O         2.048421         2.953918         0.477327
 H        -0.582535         0.840637         0.549388
 H        -0.716961         0.003236        -1.113788
 H        -0.113520        -0.882849         0.353472
 H         4.321632         0.636525         0.313788
 H         2.531301        -1.404136        -0.890450
 H         3.301709        -0.034496        -2.836267
 H         1.662817        -0.035672        -3.019860
 H         3.208765         2.502620        -2.203805
 H         1.555611         2.418111        -2.184542
 H         2.113823         2.583983         1.421150
