19
Iteration:  4054charge 0 multiplicity 1
 C         0.006582         0.313086        -0.004223
 C         1.461993         0.391703        -0.083282
 O         2.317696         0.058974         1.179835
 C         3.221691         0.522714         0.163708
 C         2.557070        -0.338360        -0.944541
 C         2.606857         0.421532        -2.312913
 C         2.204881         1.869755        -1.914941
 C         2.120933         1.675935        -0.424349
 O         1.926917         2.744623         0.529203
 H        -0.169293         1.008330         0.880576
 H        -0.466123         0.795197        -0.881037
 H        -0.338063        -0.645195         0.080027
 H         4.325147         0.662318         0.320829
 H         2.479400        -1.465853        -0.810049
 H         3.609243         0.496848        -2.790856
 H         1.839692         0.037666        -2.975567
 H         3.020944         2.473348        -2.232135
 H         1.269493         2.325121        -2.161511
 H         2.238551         2.314222         1.343023
