19
Iteration:  3657charge 0 multiplicity 1
 C        -0.118285         0.158888         0.200147
 C         1.413907         0.342411        -0.004533
 O         2.234252         0.080929         1.123876
 C         3.256652         0.478357         0.084420
 C         2.454157        -0.279511        -0.999635
 C         2.731308         0.460152        -2.307015
 C         2.288828         1.911155        -1.884937
 C         2.227702         1.669410        -0.334549
 O         1.931976         2.832966         0.372674
 H        -0.463829         0.680582         1.062062
 H        -0.582102         0.528496        -0.703093
 H        -0.331645        -0.991511         0.201914
 H         4.327029         0.749789         0.346997
 H         2.358914        -1.372110        -1.009954
 H         3.765005         0.425445        -2.588661
 H         2.214175         0.026432        -3.213802
 H         3.175303         2.602002        -2.212792
 H         1.338446         2.279628        -2.238898
 H         2.367016         2.698776         1.232199
