19
Iteration:   672charge 0 multiplicity 1
 C         0.056313         0.386033        -0.004279
 C         1.473742         0.353731        -0.007804
 O         2.257467         0.023812         1.217728
 C         3.186596         0.547199         0.126850
 C         2.524423        -0.346284        -1.022060
 C         2.598714         0.412235        -2.306474
 C         2.180546         1.829537        -1.893249
 C         2.260890         1.656584        -0.337210
 O         1.887927         2.773621         0.448833
 H        -0.337528         1.228535         0.633888
 H        -0.348599         0.440189        -0.962305
 H        -0.289035        -0.591947         0.461621
 H         4.235800         0.667392         0.418421
 H         2.766467        -1.355966        -0.940178
 H         3.631716         0.439504        -2.711107
 H         2.050904        -0.000038        -3.083519
 H         2.719301         2.642930        -2.342321
 H         1.144819         2.092721        -2.034065
 H         2.603973         2.743027         1.097760
