19
Iteration:  4159
 C        -0.025202         0.046899        -0.010681
 C         1.449563         0.438995        -0.022111
 O         2.282494         0.164669         1.199522
 C         3.210542         0.479027         0.085116
 C         2.485935        -0.339528        -0.933413
 C         2.430504         0.505200        -2.263442
 C         2.372338         1.927345        -1.816581
 C         2.157006         1.672680        -0.399085
 O         2.040812         2.793019         0.419051
 H        -0.782713         0.734495         0.403644
 H        -0.077756         0.053562        -1.156735
 H        -0.255780        -1.034549         0.472694
 H         4.269545         0.609341         0.385063
 H         2.475435        -1.400240        -1.093751
 H         3.300625         0.199771        -2.827785
 H         1.563359         0.139490        -2.908253
 H         3.283773         2.609081        -1.937320
 H         1.546969         2.434166        -2.327772
 H         2.419928         2.709372         1.288840
