19
Iteration:  4166
 C        -0.055411         0.109145        -0.010295
 C         1.412434         0.424339         0.090988
 O         2.297051         0.185545         1.206332
 C         3.201122         0.489050         0.036901
 C         2.518565        -0.355767        -0.983213
 C         2.509940         0.398731        -2.281510
 C         2.338974         1.976164        -1.868157
 C         2.180404         1.685241        -0.345418
 O         2.017466         2.764360         0.433498
 H        -0.851798         0.804893         0.177726
 H        -0.192844         0.119156        -1.067208
 H        -0.262852        -0.916125         0.275108
 H         4.261634         0.484180         0.233726
 H         2.796644        -1.430836        -1.086831
 H         3.375236         0.210144        -2.989758
 H         1.565319         0.290283        -2.766844
 H         3.146294         2.611770        -1.958340
 H         1.380256         2.499119        -2.183238
 H         2.363045         2.549698         1.332900
