19
Iteration:  4108
 C        -0.086316        -0.048585         0.119949
 C         1.380113         0.365886        -0.046299
 O         2.216788         0.045332         1.152907
 C         3.148083         0.565452         0.130604
 C         2.500805        -0.274285        -0.966153
 C         2.577048         0.499891        -2.295574
 C         2.373639         1.980709        -1.883375
 C         2.129708         1.685030        -0.374348
 O         2.165275         2.865093         0.372819
 H        -0.332599         0.520285         1.053245
 H        -0.741412         0.134096        -0.733914
 H        -0.148635        -1.002536         0.420112
 H         4.216550         0.522560         0.467206
 H         2.631866        -1.397349        -1.019223
 H         3.401999         0.230671        -2.972090
 H         1.696017         0.138829        -2.856768
 H         3.396384         2.449652        -1.859623
 H         1.746347         2.657292        -2.416024
 H         1.630627         3.033070         1.153274
