19
Iteration:   315charge 0 multiplicity 1
 C        -0.092591         0.319693         0.149568
 C         1.510489         0.312660        -0.013617
 O         2.187301         0.023525         1.177516
 C         3.325108         0.526226         0.093123
 C         2.609582        -0.320173        -0.954742
 C         2.597310         0.405023        -2.361473
 C         2.227266         1.840118        -1.930552
 C         2.227680         1.675514        -0.388403
 O         1.901962         2.854988         0.396939
 H        -0.214466         1.178981         0.887367
 H        -0.544912         0.520512        -0.763029
 H        -0.480387        -0.637316         0.603163
 H         4.340562         0.402843         0.512445
 H         2.611957        -1.375248        -0.929138
 H         3.710399         0.555439        -2.636866
 H         2.086065        -0.040419        -3.183461
 H         3.086898         2.542838        -2.091316
 H         1.281414         2.195563        -2.204437
 H         1.718209         2.629104         1.351117
