19
Iteration:   918charge 0 multiplicity 1
 C        -0.108328        -0.140167         0.101918
 C         1.386335         0.257444        -0.012146
 O         2.157108         0.138308         1.141690
 C         3.204817         0.645320         0.169468
 C         2.471758        -0.267315        -0.984943
 C         2.492662         0.477020        -2.347407
 C         2.438628         1.980186        -1.801196
 C         2.235306         1.711155        -0.331087
 O         2.181412         2.914455         0.312888
 H        -0.616104         0.602418         0.753063
 H        -0.693020         0.028494        -0.858014
 H        -0.388691        -1.142593         0.570821
 H         4.265669         0.436543         0.334690
 H         2.566693        -1.412079        -0.875769
 H         3.259979         0.016514        -2.983407
 H         1.489502         0.248535        -2.752143
 H         3.504096         2.281835        -1.976239
 H         1.665653         2.642475        -2.400107
 H         1.965585         2.641253         1.244205
