19
Iteration:  3792charge 0 multiplicity 1
 C        -0.057913        -0.173198         0.127712
 C         1.354156         0.395651        -0.072169
 O         2.119899         0.075053         1.133157
 C         3.170573         0.611013         0.065521
 C         2.425726        -0.275632        -1.014033
 C         2.545101         0.437841        -2.343554
 C         2.461172         1.893205        -1.797674
 C         2.241574         1.740888        -0.337874
 O         2.151118         2.954212         0.459564
 H        -0.622851         0.697730         0.585783
 H        -0.612901        -0.308166        -0.852732
 H        -0.099013        -1.033901         0.688170
 H         4.253531         0.772097         0.323219
 H         2.735623        -1.334267        -0.959175
 H         3.383578         0.374450        -3.048525
 H         1.707672         0.292444        -2.959077
 H         3.335740         2.443243        -2.051475
 H         1.658810         2.602619        -2.251564
 H         2.121779         2.613796         1.375869
