19
Iteration:  4329
 C        -0.098063         0.015086        -0.147098
 C         1.393232         0.329453        -0.050585
 O         2.360442         0.154080         1.263832
 C         3.230231         0.592573         0.114703
 C         2.454137        -0.264767        -0.915046
 C         2.429128         0.328816        -2.343583
 C         2.331383         1.895634        -1.879087
 C         2.232456         1.712555        -0.296752
 O         2.076750         2.898422         0.458250
 H        -0.613525         0.728559         0.590275
 H        -0.392601         0.059871        -1.161481
 H        -0.053457        -1.006537         0.230891
 H         4.283953         0.642929         0.365203
 H         2.456770        -1.346906        -0.724784
 H         3.365016         0.070852        -2.931068
 H         1.519860         0.215613        -2.920829
 H         3.243823         2.477843        -1.983441
 H         1.429297         2.400486        -2.363025
 H         1.985605         2.751778         1.427676
