19
Iteration:  2507charge 0 multiplicity 1
 C        -0.030685         0.124976         0.093638
 C         1.416317         0.386447        -0.060625
 O         2.255087         0.179594         1.193269
 C         3.192462         0.566137         0.179604
 C         2.442696        -0.332148        -1.068000
 C         2.437129         0.345246        -2.372052
 C         2.498502         1.874101        -1.871297
 C         2.296636         1.702535        -0.318279
 O         1.886794         2.822217         0.452331
 H        -0.498082         0.646167         0.889596
 H        -0.440884         0.280975        -0.914219
 H        -0.089621        -1.029848         0.171754
 H         4.278247         0.663612         0.470062
 H         2.786432        -1.334615        -1.099515
 H         3.379532        -0.040999        -2.910211
 H         1.602428         0.195039        -2.984941
 H         3.422430         2.311844        -2.040485
 H         1.781194         2.521682        -2.339221
 H         2.347548         2.894814         1.303798
