19
Iteration:  2929
 C        -0.124877         0.004463        -0.038564
 C         1.411814         0.408182        -0.019913
 O         2.237302         0.099284         1.138622
 C         3.242896         0.586117         0.099104
 C         2.492363        -0.275429        -0.829322
 C         2.535524         0.364709        -2.257222
 C         2.257563         1.882198        -1.891354
 C         2.239214         1.676737        -0.343221
 O         2.158374         2.945212         0.386297
 H        -0.652173         0.614800         0.648058
 H        -0.533453        -0.006999        -1.055632
 H        -0.033389        -1.149735         0.214780
 H         4.273664         0.760377         0.395918
 H         2.604799        -1.313747        -0.635001
 H         3.517141         0.106272        -2.692318
 H         1.767650         0.111655        -3.104015
 H         2.876222         2.735268        -2.096576
 H         1.235577         2.128519        -2.110822
 H         1.850669         2.686797         1.271075
