19
Iteration:  4148
 C         0.008220        -0.001760        -0.049053
 C         1.395534         0.327589        -0.077259
 O         2.267177         0.148952         1.179436
 C         3.228774         0.530951         0.157980
 C         2.408413        -0.273521        -0.956348
 C         2.414415         0.457153        -2.291766
 C         2.381010         1.930727        -1.822131
 C         2.237261         1.705019        -0.310079
 O         2.059818         2.865945         0.396370
 H        -0.470575         0.746769         0.584193
 H        -0.630139        -0.175717        -0.988388
 H        -0.014362        -1.077825         0.502514
 H         4.309319         0.616575         0.388368
 H         2.351629        -1.338633        -0.813006
 H         3.330446         0.356732        -2.863503
 H         1.516443         0.193939        -2.941366
 H         3.417844         2.367284        -2.034229
 H         1.617471         2.577570        -2.282660
 H         2.340867         2.528622         1.288008
