19
Iteration:  2896
 C        -0.027731        -0.086791        -0.038476
 C         1.384150         0.260909        -0.007107
 O         2.186734         0.217904         1.257088
 C         3.168049         0.543673         0.156904
 C         2.410607        -0.363743        -0.883510
 C         2.545877         0.470471        -2.333486
 C         2.268959         1.952798        -1.877512
 C         2.193064         1.726587        -0.315334
 O         2.240828         2.966644         0.313283
 H        -0.620025         0.336292         0.769347
 H        -0.440880         0.165257        -1.029114
 H        -0.114526        -1.270086         0.107319
 H         4.251089         0.631810         0.290218
 H         2.570734        -1.405787        -0.866840
 H         3.573794         0.184361        -2.602461
 H         1.829333         0.043516        -3.155784
 H         2.888401         2.811575        -2.071070
 H         1.273686         2.167667        -2.261001
 H         2.517849         2.490370         1.148195
