19
Iteration:  3110
 C        -0.068804         0.034825        -0.011715
 C         1.447452         0.300388         0.031543
 O         2.245616         0.221736         1.194297
 C         3.292231         0.626472         0.159492
 C         2.510231        -0.292394        -0.878080
 C         2.466131         0.441320        -2.397495
 C         2.322266         1.815869        -1.834149
 C         2.196269         1.642724        -0.405867
 O         2.069507         2.838760         0.368404
 H        -0.627002         0.662304         0.787779
 H        -0.402181         0.498699        -0.968802
 H        -0.316442        -0.994645         0.057405
 H         4.352480         0.790515         0.470266
 H         2.645070        -1.374836        -0.780207
 H         3.330734         0.252245        -3.075877
 H         1.514671         0.126616        -2.731516
 H         3.138571         2.560935        -1.984149
 H         1.378280         2.315961        -2.132842
 H         1.845158         2.508197         1.258343
