19
Iteration:  3825charge 0 multiplicity 1
 C        -0.068560         0.066058         0.063994
 C         1.404143         0.350714        -0.126586
 O         2.310967         0.153239         1.226588
 C         3.187228         0.486960         0.081576
 C         2.457747        -0.357619        -0.983086
 C         2.611384         0.490993        -2.327467
 C         2.330493         1.954254        -1.821618
 C         2.163347         1.696472        -0.336121
 O         1.998239         2.820057         0.439113
 H        -0.335522         0.949860         0.744104
 H        -0.568787         0.233791        -0.933652
 H        -0.375149        -0.816178         0.495325
 H         4.290483         0.552142         0.266418
 H         2.653173        -1.447850        -1.074281
 H         3.607815         0.454172        -2.827348
 H         1.870952         0.254034        -3.017826
 H         3.245547         2.387386        -2.053227
 H         1.402763         2.418503        -2.298660
 H         2.115205         2.330691         1.311546
