19
Iteration:  2747
 C        -0.091306        -0.055251        -0.021385
 C         1.397507         0.317536         0.016526
 O         2.217069         0.251635         1.206041
 C         3.231900         0.531846         0.076190
 C         2.359631        -0.302141        -0.930269
 C         2.619450         0.359966        -2.322518
 C         2.235187         1.932526        -1.846273
 C         2.254528         1.747453        -0.354300
 O         2.181151         2.882865         0.417061
 H        -0.715897         0.616320         0.525902
 H        -0.425127        -0.027393        -1.061607
 H        -0.285620        -1.127910         0.388011
 H         4.330995         0.513489         0.348888
 H         2.498326        -1.395238        -0.853072
 H         3.648647         0.310997        -2.775408
 H         1.863877         0.160920        -3.074533
 H         2.937054         2.857544        -2.077960
 H         1.234752         2.204253        -2.230035
 H         2.346506         2.502403         1.296695
