19
Iteration:  1595
 C        -0.108069         0.247094         0.039679
 C         1.451666         0.338847        -0.044339
 O         2.263992         0.164483         1.167399
 C         3.302640         0.511177         0.142588
 C         2.557945        -0.245021        -0.978293
 C         2.514416         0.312738        -2.342202
 C         2.352119         1.834153        -1.896879
 C         2.299177         1.687731        -0.306816
 O         1.884866         2.835597         0.446092
 H        -0.595054         0.873788         0.876010
 H        -0.738085         0.477688        -0.738760
 H        -0.291910        -0.808514         0.313402
 H         4.464176         0.465559         0.277784
 H         2.630680        -1.324403        -0.865701
 H         3.345646         0.086705        -3.002994
 H         1.637002        -0.148622        -2.882259
 H         3.106783         2.514375        -2.289493
 H         1.375626         2.079238        -2.389688
 H         2.131374         2.688845         1.391567
