19
Iteration:  1648
 C        -0.081326        -0.066851        -0.067507
 C         1.371840         0.380165        -0.026631
 O         2.213944         0.194478         1.210733
 C         3.180478         0.571955         0.104914
 C         2.522485        -0.338434        -0.930429
 C         2.411979         0.382462        -2.334241
 C         2.284740         1.899890        -1.848993
 C         2.317734         1.747412        -0.324389
 O         2.249697         2.956196         0.444138
 H        -0.960949         0.380983         0.581113
 H        -0.450241        -0.063652        -1.101076
 H        -0.142772        -1.195392         0.232655
 H         4.198316         0.660196         0.423283
 H         2.614174        -1.403846        -0.628375
 H         3.286222         0.261834        -2.968586
 H         1.454725        -0.001943        -2.861640
 H         3.138329         2.447517        -2.258750
 H         1.303323         2.113244        -2.218452
 H         1.941623         2.627486         1.321606
