19
Iteration:  4069charge 0 multiplicity 1
 C        -0.069581         0.199429         0.076216
 C         1.421703         0.399202        -0.059899
 O         2.289970         0.108420         1.155722
 C         3.292292         0.416044         0.083836
 C         2.484316        -0.284404        -0.948594
 C         2.609778         0.392063        -2.298144
 C         2.288540         1.977623        -1.922898
 C         2.189760         1.747879        -0.359590
 O         1.916920         2.775653         0.493399
 H        -0.605249         0.636225         0.940265
 H        -0.597434         0.613652        -0.789004
 H        -0.279550        -0.999501         0.115797
 H         4.320079         0.264590         0.345650
 H         2.619613        -1.365398        -0.964792
 H         3.677865         0.220884        -2.607403
 H         1.976310        -0.132122        -3.029048
 H         3.028047         2.748597        -2.113300
 H         1.356791         2.214166        -2.541515
 H         2.472783         2.625106         1.277811
