19
Iteration:  1127
 C        -0.075202        -0.140578        -0.032584
 C         1.342696         0.384568        -0.021496
 O         2.263489         0.282694         1.266488
 C         3.174777         0.500888         0.154120
 C         2.486973        -0.286593        -0.932058
 C         2.328329         0.493989        -2.265710
 C         2.423751         1.938108        -1.828786
 C         2.282184         1.708542        -0.370243
 O         2.169240         2.813372         0.312134
 H        -0.700530         0.493001         0.646888
 H        -0.287223         0.060210        -0.998898
 H        -0.066103        -1.261801         0.145758
 H         4.159514         0.751971         0.395122
 H         2.683886        -1.325041        -1.064538
 H         3.320431         0.329378        -2.976358
 H         1.475689        -0.052532        -2.787168
 H         3.395167         2.335994        -2.138812
 H         1.504679         2.481209        -2.299474
 H         1.917264         2.614825         1.254306
