19
Iteration:  2127charge 0 multiplicity 1
 C        -0.055766         0.198549         0.004392
 C         1.332076         0.343490        -0.093310
 O         2.345526         0.101427         1.262914
 C         3.256796         0.543162         0.110377
 C         2.431357        -0.354490        -0.930933
 C         2.663478         0.466550        -2.377145
 C         2.182373         1.909707        -1.856789
 C         2.218430         1.656679        -0.311708
 O         2.073115         2.782325         0.399608
 H        -0.456800         0.986770         0.747283
 H        -0.542436         0.309898        -0.922173
 H        -0.399237        -0.834545         0.258364
 H         4.357983         0.743626         0.263031
 H         2.344311        -1.399479        -0.867088
 H         3.684672         0.392303        -2.701832
 H         1.969971         0.162288        -3.201061
 H         2.751338         2.794931        -2.074500
 H         1.165970         2.177926        -2.127478
 H         1.973276         2.500796         1.357534
