19
Iteration:  3849charge 0 multiplicity 1
 C        -0.005473         0.304612         0.017895
 C         1.449919         0.429422        -0.024355
 O         2.297772         0.064879         1.077958
 C         3.284197         0.564268         0.095549
 C         2.476547        -0.277063        -0.910665
 C         2.599750         0.402374        -2.337759
 C         2.228236         1.845944        -1.903406
 C         2.291547         1.646441        -0.300289
 O         1.891367         2.724278         0.527529
 H        -0.492318         0.948340         0.797930
 H        -0.264011         0.663567        -0.961051
 H        -0.392375        -0.716824         0.147922
 H         4.326551         0.642244         0.316210
 H         2.703652        -1.373959        -0.826122
 H         3.600048         0.427896        -2.851716
 H         1.858925         0.006193        -2.987495
 H         2.972168         2.547465        -2.251251
 H         1.118963         2.111895        -2.153453
 H         1.533491         2.263813         1.309110
