19
Iteration:  1273charge 0 multiplicity 1
 C        -0.018344        -0.070626         0.030126
 C         1.389279         0.307056         0.010130
 O         2.283932         0.200891         1.215172
 C         3.122447         0.601466         0.126828
 C         2.416464        -0.285839        -0.926435
 C         2.399522         0.482166        -2.178794
 C         2.387271         1.915472        -1.901542
 C         2.295308         1.701516        -0.397415
 O         2.166367         2.841696         0.289542
 H        -0.724141         0.450613         0.598840
 H        -0.309783         0.040682        -1.069755
 H        -0.141174        -1.079949         0.196044
 H         4.102885         0.661336         0.527467
 H         2.637578        -1.384566        -0.786325
 H         3.115845         0.123091        -2.926400
 H         1.462822         0.256868        -2.850571
 H         3.347484         2.545326        -1.978203
 H         1.486846         2.432813        -2.247573
 H         1.806640         2.606861         1.175619
