19
Iteration:    55charge 0 multiplicity 1
 C         0.061703        -0.087704        -0.037845
 C         1.424107         0.379030        -0.044049
 O         2.100276         0.235483         1.263892
 C         3.231686         0.563976         0.059624
 C         2.502370        -0.348929        -0.913101
 C         2.441376         0.435447        -2.257141
 C         2.371738         1.919431        -1.838191
 C         2.144025         1.662590        -0.358351
 O         2.185841         2.893788         0.339834
 H        -0.569206         0.485067         0.653273
 H        -0.381224        -0.015976        -0.927763
 H        -0.104790        -1.133629         0.220755
 H         4.244371         0.784600         0.402137
 H         2.572210        -1.429563        -0.855092
 H         3.158740         0.058665        -2.985573
 H         1.464295         0.306908        -2.692840
 H         3.168738         2.677496        -1.975328
 H         1.455289         2.324268        -2.255595
 H         2.177534         2.736995         1.294179
