19
Iteration:  2334
 C        -0.092609         0.072611         0.075528
 C         1.437248         0.345452        -0.027170
 O         2.256781         0.102887         1.194343
 C         3.216743         0.554121         0.109427
 C         2.491898        -0.314387        -1.007193
 C         2.476641         0.452493        -2.286346
 C         2.475998         1.935249        -1.798024
 C         2.199888         1.668216        -0.342800
 O         2.000390         2.834796         0.309556
 H        -0.466556         0.733879         0.885878
 H        -0.473439         0.195828        -0.912953
 H        -0.405106        -0.898108         0.424910
 H         4.294425         0.671896         0.369353
 H         2.508431        -1.346941        -0.960807
 H         3.333098         0.116891        -2.949575
 H         1.537868         0.242502        -2.825949
 H         3.378139         2.516079        -2.025723
 H         1.625658         2.610567        -2.177216
 H         1.969694         2.730326         1.294541
