19
Iteration:   247charge 0 multiplicity 1
 C        -0.072900         0.012744         0.028460
 C         1.415277         0.346070        -0.092071
 O         2.221571         0.203138         1.136189
 C         3.238450         0.689387         0.151366
 C         2.480065        -0.385147        -0.947494
 C         2.463943         0.355984        -2.302092
 C         2.403363         1.903946        -1.819195
 C         2.167524         1.722511        -0.356552
 O         2.125505         2.836015         0.417282
 H        -0.528990         0.722166         0.735145
 H        -0.485532         0.131783        -0.987139
 H        -0.245896        -1.014725         0.392052
 H         4.247211         0.998501         0.533027
 H         2.379581        -1.418643        -0.790050
 H         3.316169         0.119971        -3.075399
 H         1.534502         0.167864        -2.787188
 H         3.413154         2.416775        -1.979289
 H         1.467408         2.284585        -2.250569
 H         2.089311         2.367396         1.271885
