19
Iteration:  2319
 C        -0.085087         0.179648         0.066561
 C         1.321047         0.342072        -0.075093
 O         2.364099         0.066647         1.163032
 C         3.174392         0.533415         0.070888
 C         2.424990        -0.308653        -0.889099
 C         2.570136         0.441557        -2.305289
 C         2.344037         1.869958        -1.801411
 C         2.241569         1.679554        -0.372650
 O         1.968412         2.862245         0.390613
 H        -0.542695         0.868150         0.739125
 H        -0.569745         0.296019        -0.961423
 H        -0.096677        -0.934481         0.321359
 H         4.258632         0.592763         0.157841
 H         2.806069        -1.406283        -0.889890
 H         3.651261         0.453419        -2.623950
 H         1.981390         0.052455        -3.091471
 H         3.296392         2.371333        -1.894876
 H         1.513601         2.387173        -2.343127
 H         2.366749         2.748376         1.270947
