19
Iteration:  2089
 C        -0.046928         0.336349         0.069773
 C         1.510052         0.350804        -0.088559
 O         2.238444         0.011082         1.154339
 C         3.262380         0.602541         0.143370
 C         2.585969        -0.329998        -0.978258
 C         2.577432         0.380203        -2.393278
 C         2.171665         1.871290        -1.871627
 C         2.208706         1.639751        -0.319744
 O         1.983045         2.801799         0.502213
 H        -0.350268         1.178200         0.648938
 H        -0.389997         0.617468        -0.998320
 H        -0.482876        -0.609815         0.394361
 H         4.310138         0.724115         0.403649
 H         2.692481        -1.459675        -0.812378
 H         3.544826         0.352092        -3.027731
 H         1.796588        -0.117262        -2.984637
 H         2.852360         2.703895        -2.200409
 H         1.115087         2.050269        -2.231729
 H         2.023972         2.479972         1.434972
