19
Iteration:  2278
 C        -0.055332         0.292930         0.056957
 C         1.471978         0.363717        -0.118099
 O         2.208023         0.165114         1.161512
 C         3.207563         0.570047         0.129348
 C         2.574368        -0.359008        -0.964070
 C         2.638059         0.458553        -2.316658
 C         2.114491         1.809724        -1.890521
 C         2.225489         1.657397        -0.350023
 O         2.087990         2.718403         0.451698
 H        -0.437702         1.017201         0.737211
 H        -0.732393         0.468968        -0.752411
 H        -0.265438        -0.708318         0.490004
 H         4.244414         0.359417         0.449615
 H         2.824818        -1.296104        -0.637326
 H         3.768825         0.598682        -2.562121
 H         2.179992         0.138568        -3.195576
 H         2.739181         2.588764        -2.272446
 H         0.978660         2.052080        -2.019130
 H         1.733159         2.264912         1.252554
