19
Iteration:   236
 C        -0.096502        -0.042768        -0.020672
 C         1.422296         0.411107        -0.075396
 O         2.187522         0.158359         1.135195
 C         3.255152         0.662409         0.188354
 C         2.452087        -0.264391        -0.900781
 C         2.392482         0.365464        -2.273497
 C         2.356640         1.842572        -1.876819
 C         2.376200         1.729846        -0.373070
 O         2.101080         2.849792         0.429745
 H        -0.660265         0.538668         0.720790
 H        -0.670396        -0.074094        -0.976930
 H         0.029590        -1.080731         0.325497
 H         4.325013         0.666511         0.502509
 H         2.689586        -1.277485        -0.790198
 H         3.280567         0.047342        -2.959462
 H         1.504809         0.133139        -2.817048
 H         3.256515         2.402728        -2.316150
 H         1.620421         2.564227        -2.239783
 H         1.992931         2.647492         1.363312
