19
Iteration:  3257
 C        -0.041359        -0.048121        -0.153274
 C         1.411622         0.276592         0.011990
 O         2.270942         0.248765         1.299272
 C         3.228840         0.626219         0.138048
 C         2.507970        -0.227286        -0.923153
 C         2.342356         0.358128        -2.293337
 C         2.346677         1.871884        -1.808576
 C         2.168363         1.658175        -0.317483
 O         2.160293         2.892587         0.323114
 H        -0.567041         0.440417         0.629927
 H        -0.362138         0.377953        -1.106992
 H        -0.152725        -1.179671        -0.063744
 H         4.281691         0.687835         0.422619
 H         2.515634        -1.358908        -0.923131
 H         3.145529         0.151345        -3.018461
 H         1.519657        -0.063504        -2.877334
 H         3.264572         2.437526        -2.047019
 H         1.457948         2.510596        -2.228719
 H         2.311928         2.697803         1.279202
