19
Iteration:  1270charge 0 multiplicity 1
 C         0.003400        -0.056249         0.035762
 C         1.388244         0.294695        -0.001767
 O         2.271085         0.189834         1.210339
 C         3.142898         0.617392         0.132338
 C         2.410208        -0.312094        -0.919601
 C         2.417077         0.475427        -2.187675
 C         2.385940         1.954255        -1.876363
 C         2.269435         1.685603        -0.411902
 O         2.159718         2.855229         0.284436
 H        -0.710113         0.593848         0.701382
 H        -0.338152         0.062349        -1.006045
 H        -0.203926        -1.146391         0.240158
 H         4.121675         0.677504         0.517232
 H         2.543533        -1.424273        -0.768025
 H         3.170286         0.128072        -3.014385
 H         1.557733         0.170125        -2.851044
 H         3.331303         2.513745        -1.997504
 H         1.444508         2.451396        -2.297257
 H         1.876664         2.494214         1.178350
