19
Iteration:   651
 C        -0.116396         0.277655         0.076301
 C         1.389553         0.360472        -0.093006
 O         2.292155         0.063251         1.078292
 C         3.287913         0.563288         0.101466
 C         2.582025        -0.317611        -0.966875
 C         2.647333         0.343187        -2.326189
 C         2.238300         1.807858        -1.870744
 C         2.210388         1.687234        -0.317729
 O         1.950919         2.866647         0.497530
 H        -0.302698         1.203736         0.730220
 H        -0.667209         0.483725        -0.819513
 H        -0.513532        -0.645537         0.605081
 H         4.331730         0.449385         0.432516
 H         2.557583        -1.305030        -0.763198
 H         3.633315         0.223988        -2.863174
 H         2.013080        -0.055898        -3.002710
 H         2.840933         2.687116        -2.087839
 H         1.231102         2.073631        -2.244214
 H         2.004771         2.482162         1.425920
