19
Iteration:   571
 C        -0.004493        -0.049793         0.011923
 C         1.384248         0.273122        -0.021816
 O         2.232554         0.129354         1.177957
 C         3.168778         0.607553         0.164914
 C         2.482207        -0.233074        -1.010681
 C         2.390193         0.373944        -2.275676
 C         2.437189         1.882253        -1.853400
 C         2.180733         1.762982        -0.327045
 O         2.151100         2.949281         0.384329
 H        -0.473474         0.654980         0.687667
 H        -0.350177         0.135821        -1.034823
 H        -0.294482        -1.090814         0.320907
 H         4.196584         0.660585         0.522925
 H         2.548499        -1.449283        -1.112075
 H         3.206880         0.038230        -2.834269
 H         1.392123         0.233657        -2.830944
 H         3.409377         2.301264        -1.963939
 H         1.706992         2.444352        -2.407441
 H         1.941601         2.559862         1.267154
