19
Iteration:  3072charge 0 multiplicity 1
 C        -0.014405        -0.134338        -0.084073
 C         1.350733         0.488525         0.000250
 O         2.217467         0.159560         1.147737
 C         3.222702         0.603061         0.123515
 C         2.434362        -0.265627        -0.854393
 C         2.548191         0.388142        -2.243742
 C         2.184634         1.840246        -1.885576
 C         2.193121         1.745006        -0.297918
 O         2.239276         2.945105         0.390577
 H        -0.719639         0.155306         0.641864
 H        -0.439659        -0.035921        -1.084373
 H         0.086710        -1.284406         0.054335
 H         4.263915         0.519720         0.420176
 H         2.237430        -1.320098        -0.627932
 H         3.478567         0.166888        -2.754975
 H         1.861230        -0.006751        -3.081021
 H         2.898377         2.541244        -2.306113
 H         1.230195         2.123719        -2.326268
 H         2.650800         2.643481         1.227723
