19
Iteration:  3930charge 0 multiplicity 1
 C        -0.076635        -0.073401         0.072733
 C         1.350624         0.417737        -0.071527
 O         2.206645         0.129608         1.127848
 C         3.238418         0.512787         0.077663
 C         2.491862        -0.288550        -1.033128
 C         2.495161         0.431144        -2.293423
 C         2.438230         1.906711        -1.823615
 C         2.251732         1.746055        -0.368184
 O         2.092243         2.925865         0.530534
 H        -0.689606         0.460876         0.762747
 H        -0.562879         0.009332        -0.922960
 H         0.028035        -1.123972         0.480209
 H         4.283700         0.293411         0.385016
 H         2.405441        -1.361923        -1.100256
 H         3.413130         0.359294        -2.881978
 H         1.683835         0.052868        -3.033225
 H         3.264328         2.715947        -2.024337
 H         1.583083         2.395271        -2.232639
 H         1.426555         2.632232         1.178887
