19
Iteration:  1175
 C        -0.078887         0.313840         0.043060
 C         1.453427         0.372548        -0.033220
 O         2.305523         0.063767         1.201539
 C         3.279244         0.578345         0.116928
 C         2.507570        -0.288264        -0.913475
 C         2.602997         0.375407        -2.330908
 C         2.220158         1.808456        -1.909999
 C         2.238401         1.695592        -0.350276
 O         1.918184         2.770351         0.411617
 H        -0.414968         1.052632         0.736951
 H        -0.665390         0.399972        -0.934383
 H        -0.294922        -0.623774         0.472777
 H         4.387747         0.501031         0.185366
 H         2.749253        -1.397750        -0.921895
 H         3.543357         0.415339        -2.799011
 H         1.873927        -0.130109        -3.057071
 H         3.034512         2.533051        -2.275449
 H         1.237513         2.215880        -2.134163
 H         2.178580         2.556506         1.322314
