19
Iteration:  2451
 C        -0.030512         0.301623         0.101636
 C         1.455073         0.317512        -0.113745
 O         2.178908         0.069715         1.213094
 C         3.288487         0.483602         0.162170
 C         2.534825        -0.336028        -0.942682
 C         2.715761         0.450291        -2.406631
 C         2.120609         1.823754        -1.929446
 C         2.259760         1.670265        -0.311161
 O         2.039509         2.864989         0.465637
 H        -0.291021         1.093414         0.716408
 H        -0.596389         0.459752        -0.831512
 H        -0.513285        -0.608087         0.609099
 H         4.353221         0.489947         0.407869
 H         2.588816        -1.401079        -0.882193
 H         3.727039         0.393405        -2.877938
 H         2.009783         0.154553        -3.134849
 H         2.580239         2.618776        -2.386439
 H         1.158687         1.756256        -2.370398
 H         1.253524         2.695904         1.042937
