19
Iteration:  2458
 C        -0.051853         0.304329         0.119003
 C         1.417902         0.286819        -0.048884
 O         2.244042         0.099876         1.190690
 C         3.183204         0.504424         0.146307
 C         2.552477        -0.320753        -0.991337
 C         2.703071         0.449217        -2.421162
 C         2.212897         1.801488        -1.881839
 C         2.261379         1.694541        -0.322475
 O         2.023184         2.808659         0.436901
 H        -0.235399         1.209178         0.838170
 H        -0.454442         0.420902        -0.923345
 H        -0.526776        -0.597838         0.505848
 H         4.217422         0.567704         0.473353
 H         2.544732        -1.452824        -0.707193
 H         3.680143         0.527751        -2.819202
 H         1.970219        -0.053392        -3.256353
 H         2.762438         2.757590        -2.336743
 H         1.095507         1.944877        -2.111998
 H         1.215661         2.636483         0.971854
