19
Iteration:  4618
 C         0.013575         0.151179         0.069371
 C         1.438393         0.394600        -0.091486
 O         2.238148         0.119343         1.186876
 C         3.192270         0.518165         0.124426
 C         2.484200        -0.313846        -0.910085
 C         2.518817         0.410079        -2.291529
 C         2.367100         1.912140        -1.905670
 C         2.268530         1.735598        -0.415573
 O         1.968435         2.798202         0.437616
 H        -0.595231         0.939242         0.541088
 H        -0.470316        -0.021623        -0.986154
 H        -0.217807        -0.787083         0.581369
 H         4.260787         0.573136         0.414894
 H         2.576125        -1.439283        -0.822717
 H         3.371933         0.087805        -2.939799
 H         1.660703        -0.081096        -2.760107
 H         3.235652         2.477921        -2.172568
 H         1.516144         2.537195        -2.308539
 H         1.848779         2.484367         1.376316
