19
Iteration:  3611charge 0 multiplicity 1
 C        -0.044164        -0.100624         0.032464
 C         1.371630         0.360643         0.028221
 O         2.155192         0.182238         1.188273
 C         3.187679         0.592594         0.099050
 C         2.527753        -0.340961        -0.936238
 C         2.395452         0.527100        -2.314777
 C         2.439900         1.926818        -1.849336
 C         2.249283         1.727272        -0.361641
 O         2.152343         2.834503         0.365373
 H        -0.694337         0.547886         0.720817
 H        -0.528900        -0.105484        -0.939339
 H        -0.086254        -1.159200         0.419594
 H         4.217210         0.607024         0.466770
 H         2.811612        -1.424217        -0.978705
 H         3.252050         0.208454        -2.933574
 H         1.546168         0.371543        -3.072941
 H         3.486955         2.454806        -1.998420
 H         1.617483         2.358546        -2.323334
 H         1.813513         2.707884         1.277961
