19
Iteration:  1765charge 0 multiplicity 1
 C        -0.056146         0.316184         0.014483
 C         1.476070         0.265751        -0.052406
 O         2.272613         0.100792         1.198995
 C         3.219406         0.564384         0.080061
 C         2.605768        -0.360138        -0.965561
 C         2.492444         0.386213        -2.242137
 C         2.292555         1.907893        -1.857549
 C         2.257033         1.709973        -0.366429
 O         1.923139         2.744262         0.386847
 H        -0.285717         0.965966         0.820253
 H        -0.516992         0.678844        -0.903548
 H        -0.489292        -0.693858         0.311367
 H         4.314119         0.787803         0.469433
 H         2.937861        -1.437420        -0.843218
 H         3.368405         0.311736        -2.899668
 H         1.583960         0.137703        -2.844957
 H         3.088727         2.684076        -2.068959
 H         1.251981         2.280677        -2.182861
 H         2.055029         2.416136         1.309963
