19
Iteration:   639
 C        -0.129310         0.258678         0.108829
 C         1.423939         0.373526        -0.037457
 O         2.286211         0.094892         1.141008
 C         3.186689         0.545151         0.090997
 C         2.551529        -0.307532        -0.977667
 C         2.598723         0.408459        -2.296495
 C         2.296685         1.865613        -1.859870
 C         2.221402         1.674910        -0.390895
 O         2.006517         2.777349         0.425724
 H        -0.583936         0.971614         0.868251
 H        -0.638810         0.314560        -0.805374
 H        -0.319339        -0.804120         0.516982
 H         4.220673         0.733901         0.382338
 H         2.856377        -1.330735        -1.104417
 H         3.665264         0.452731        -2.580195
 H         1.972566        -0.066075        -2.972752
 H         3.159350         2.387065        -2.233981
 H         1.366100         2.309816        -2.209559
 H         1.708658         2.391188         1.288361
