19
Iteration:    79
 C        -0.113911         0.023287         0.047778
 C         1.407954         0.318547        -0.072052
 O         2.250218         0.128216         1.155392
 C         3.242234         0.601973         0.264802
 C         2.539937        -0.238343        -0.956914
 C         2.450535         0.384784        -2.310284
 C         2.325981         1.851375        -1.886359
 C         2.368796         1.739631        -0.362816
 O         2.042863         2.889851         0.350621
 H        -0.654388         0.675327         0.614133
 H        -0.592557         0.091041        -0.949156
 H        -0.465346        -0.953677         0.316738
 H         4.201624         0.637412         0.772474
 H         2.666623        -1.365880        -0.892402
 H         3.307297         0.183794        -2.865545
 H         1.576209        -0.044808        -2.909661
 H         3.186259         2.317487        -2.227740
 H         1.439706         2.611377        -2.048911
 H         1.879471         2.532194         1.270266
