19
Iteration:  1367
 C         0.009298         0.313698         0.181924
 C         1.460764         0.407517        -0.013116
 O         2.265586         0.067846         1.142582
 C         3.237220         0.556076         0.025719
 C         2.426563        -0.311864        -0.917438
 C         2.728651         0.384362        -2.297318
 C         2.204749         1.833291        -1.894575
 C         2.252283         1.701768        -0.355343
 O         1.889464         2.765812         0.365185
 H        -0.262778         1.133268         0.963678
 H        -0.560018         0.448918        -0.749838
 H        -0.281067        -0.670043         0.656103
 H         4.392050         0.579961         0.136454
 H         2.462400        -1.420584        -0.966871
 H         3.829187         0.163109        -2.493462
 H         2.183563         0.056348        -3.144829
 H         2.912799         2.517665        -2.257474
 H         1.216933         1.956639        -2.424597
 H         1.675069         2.420152         1.265271
