19
Iteration:   920charge 0 multiplicity 1
 C        -0.119097        -0.145440         0.095097
 C         1.377659         0.268154        -0.019977
 O         2.171619         0.126810         1.144591
 C         3.206712         0.633729         0.175369
 C         2.470212        -0.267574        -0.981427
 C         2.489388         0.451947        -2.339299
 C         2.441763         1.995049        -1.816846
 C         2.215788         1.718413        -0.336866
 O         2.198811         2.916797         0.315848
 H        -0.673499         0.600282         0.802873
 H        -0.624816         0.001378        -0.835992
 H        -0.338555        -1.188023         0.583483
 H         4.226381         0.536322         0.386666
 H         2.556580        -1.351752        -0.851220
 H         3.238293         0.163754        -2.979648
 H         1.459370         0.230848        -2.804904
 H         3.511160         2.247705        -1.961766
 H         1.731814         2.676774        -2.391092
 H         1.887910         2.683029         1.236807
