19
Iteration:  1093charge 0 multiplicity 1
 C        -0.005070        -0.106004         0.048096
 C         1.353533         0.451379        -0.057693
 O         2.167946         0.160073         1.165219
 C         3.169139         0.597286         0.075146
 C         2.452945        -0.247596        -0.959101
 C         2.416286         0.323294        -2.330358
 C         2.474625         1.827643        -1.852576
 C         2.249351         1.767158        -0.312187
 O         2.114565         2.935615         0.459134
 H        -0.661374         0.415378         0.768138
 H        -0.593533        -0.089634        -0.825937
 H         0.013646        -1.190596         0.416774
 H         4.249607         0.762701         0.198039
 H         2.722351        -1.263690        -0.940927
 H         3.415366         0.252086        -3.020202
 H         1.522521        -0.054624        -2.887568
 H         3.402352         2.257076        -2.186033
 H         1.701146         2.518679        -2.365487
 H         2.259895         2.656192         1.389393
