19
Iteration:  1281charge 0 multiplicity 1
 C        -0.074315        -0.115256        -0.039679
 C         1.385637         0.368694         0.042427
 O         2.278202         0.221503         1.231280
 C         3.180098         0.559345         0.128623
 C         2.451652        -0.252025        -0.899966
 C         2.332155         0.422599        -2.281935
 C         2.412765         1.869682        -1.875293
 C         2.296655         1.735111        -0.361343
 O         2.170378         2.867852         0.336274
 H        -0.886433         0.407058         0.616381
 H        -0.349438        -0.002675        -1.103054
 H        -0.020593        -1.216572         0.214053
 H         4.228262         0.603232         0.291109
 H         2.773408        -1.338817        -0.999684
 H         3.281087         0.076116        -2.865162
 H         1.294587         0.315632        -2.664706
 H         3.297785         2.455887        -2.222150
 H         1.546754         2.525646        -2.241106
 H         1.733863         2.836614         1.212553
