19
Iteration:  1179charge 0 multiplicity 1
 C        -0.090734         0.331704         0.047811
 C         1.416201         0.365062        -0.017954
 O         2.311113         0.085149         1.209711
 C         3.317370         0.562254         0.115290
 C         2.505083        -0.315249        -0.935479
 C         2.609906         0.391928        -2.361751
 C         2.225447         1.836607        -1.873604
 C         2.247286         1.659369        -0.366892
 O         1.904370         2.762307         0.401857
 H        -0.425745         1.120750         0.772384
 H        -0.598141         0.496702        -0.932974
 H        -0.307892        -0.661118         0.600244
 H         4.454138         0.533999         0.248463
 H         2.739391        -1.347404        -0.888490
 H         3.604934         0.352623        -2.873856
 H         2.007043        -0.121201        -3.027646
 H         2.899438         2.569126        -2.209223
 H         1.217262         2.086630        -2.241558
 H         2.078571         2.569919         1.348352
