19
Iteration:  3450charge 0 multiplicity 1
 C         0.035967        -0.008696         0.016949
 C         1.389806         0.411449        -0.074563
 O         2.194151         0.255180         1.247506
 C         3.179299         0.483638         0.132916
 C         2.500131        -0.308108        -0.931422
 C         2.424707         0.398736        -2.349896
 C         2.442896         1.883349        -1.861756
 C         2.258074         1.691703        -0.379786
 O         2.024552         2.875382         0.386977
 H        -0.313833         0.510131         0.897048
 H        -0.547229         0.362198        -0.789381
 H        -0.148443        -1.112522         0.334563
 H         4.251208         0.712139         0.488881
 H         2.743331        -1.404701        -0.952263
 H         3.210888         0.109198        -3.070445
 H         1.516651         0.034404        -2.844449
 H         3.407752         2.428863        -2.075058
 H         1.525176         2.428166        -2.134160
 H         1.968562         2.370076         1.232355
