19
Iteration:  3547charge 0 multiplicity 1
 C        -0.093891         0.221282        -0.064662
 C         1.468892         0.319443        -0.071161
 O         2.323328         0.124990         1.196541
 C         3.273302         0.588635         0.152911
 C         2.562050        -0.317495        -0.961485
 C         2.501751         0.357042        -2.352577
 C         2.236031         1.836968        -1.845685
 C         2.184148         1.668462        -0.319106
 O         2.024050         2.809843         0.452000
 H        -0.440098         1.096460         0.533375
 H        -0.543571         0.319199        -1.029892
 H        -0.537315        -0.608723         0.586944
 H         4.247917         0.962415         0.584189
 H         2.720605        -1.401893        -0.737211
 H         3.489257         0.340211        -2.744573
 H         1.708672         0.110665        -3.074196
 H         3.143145         2.534231        -2.091483
 H         1.329069         2.201737        -2.304984
 H         1.628766         2.533579         1.311045
