19
Iteration:  1645
 C        -0.070805        -0.075247        -0.066250
 C         1.351427         0.396989         0.004893
 O         2.220136         0.192282         1.242848
 C         3.193152         0.577991         0.079451
 C         2.527485        -0.319251        -0.945827
 C         2.422505         0.386172        -2.359585
 C         2.279149         1.894590        -1.844255
 C         2.291300         1.744469        -0.302011
 O         2.252735         2.941362         0.432841
 H        -0.871025         0.415983         0.473573
 H        -0.436975         0.034404        -1.158751
 H        -0.206431        -1.183539         0.191835
 H         4.176666         0.639268         0.422877
 H         2.606303        -1.427800        -0.660077
 H         3.282732         0.116405        -3.025415
 H         1.485608        -0.040354        -2.811888
 H         3.199385         2.422860        -2.207307
 H         1.278869         2.160797        -2.223564
 H         1.884560         2.611820         1.265220
