19
Iteration:  2450charge 0 multiplicity 1
 C        -0.028890         0.299493         0.097335
 C         1.459342         0.326052        -0.115271
 O         2.173939         0.065716         1.211901
 C         3.297074         0.483667         0.163391
 C         2.534673        -0.335370        -0.940350
 C         2.719112         0.450037        -2.396077
 C         2.111330         1.823507        -1.933146
 C         2.256910         1.666030        -0.314513
 O         2.041574         2.869437         0.467630
 H        -0.306991         1.099032         0.712141
 H        -0.619839         0.472905        -0.830576
 H        -0.489013        -0.616079         0.619606
 H         4.352588         0.478864         0.402076
 H         2.607514        -1.428826        -0.917014
 H         3.706707         0.379496        -2.851913
 H         1.982068         0.137510        -3.161166
 H         2.582859         2.640282        -2.397173
 H         1.170020         1.751656        -2.366320
 H         1.264678         2.702298         1.055978
