19
Iteration:  1538charge 0 multiplicity 1
 C        -0.174740         0.258337         0.213851
 C         1.417922         0.429267         0.032263
 O         2.316108         0.140697         1.181999
 C         3.181245         0.458037         0.098430
 C         2.537821        -0.356751        -1.041224
 C         2.744743         0.404410        -2.390441
 C         2.281830         1.863495        -1.851866
 C         2.192569         1.663245        -0.377792
 O         1.933159         2.818155         0.358785
 H        -0.600526         1.000256         0.967872
 H        -0.581005         0.241120        -0.816572
 H        -0.329021        -0.831274         0.616744
 H         4.255287         0.618993         0.210843
 H         2.450619        -1.483913        -0.864927
 H         3.810452         0.482783        -2.632499
 H         2.048526        -0.101211        -3.177189
 H         3.094778         2.631193        -2.067611
 H         1.399273         2.190197        -2.427963
 H         2.170250         2.413894         1.207321
