19
Iteration:   847charge 0 multiplicity 1
 C        -0.082008         0.375469        -0.026733
 C         1.435460         0.258150        -0.097178
 O         2.363671         0.165307         1.191055
 C         3.288082         0.537293         0.146294
 C         2.555822        -0.370108        -0.916870
 C         2.588866         0.385132        -2.327161
 C         2.134124         1.882092        -1.856209
 C         2.201948         1.622458        -0.388045
 O         1.987217         2.741929         0.463174
 H        -0.327699         1.217558         0.660910
 H        -0.461641         0.684728        -0.963449
 H        -0.612968        -0.493829         0.304015
 H         4.327873         0.657991         0.498640
 H         2.666587        -1.396865        -0.941202
 H         3.691135         0.530858        -2.670066
 H         1.921785        -0.035495        -3.111347
 H         2.912134         2.632517        -1.882172
 H         1.168535         2.262436        -2.117040
 H         1.524022         2.273615         1.213942
