19
Iteration:   150
 C         0.043193         0.284386         0.149295
 C         1.424712         0.412886        -0.147127
 O         2.179517         0.156899         1.143125
 C         3.197725         0.543227         0.102578
 C         2.561394        -0.327845        -0.971816
 C         2.644923         0.341746        -2.284240
 C         2.246646         1.819301        -1.865600
 C         2.215398         1.708210        -0.376707
 O         1.948880         2.741524         0.441968
 H        -0.254223         1.122661         0.956222
 H        -0.599451         0.409056        -0.783163
 H        -0.358798        -0.711791         0.566393
 H         4.287530         0.656870         0.297193
 H         2.699556        -1.365142        -0.864960
 H         3.704900         0.395976        -2.797923
 H         2.040647        -0.137814        -3.017462
 H         3.160473         2.515984        -2.158274
 H         1.339796         2.240883        -2.272550
 H         1.798429         2.257306         1.302832
