19
Iteration:  1366
 C         0.009809         0.312124         0.178770
 C         1.463417         0.398754        -0.020409
 O         2.266731         0.076197         1.147985
 C         3.226121         0.553961         0.018505
 C         2.428909        -0.305288        -0.921399
 C         2.723912         0.381057        -2.291217
 C         2.205622         1.831159        -1.886537
 C         2.251205         1.697452        -0.359262
 O         1.893804         2.766025         0.367897
 H        -0.253421         1.126927         0.939584
 H        -0.517279         0.440769        -0.722293
 H        -0.279902        -0.681795         0.642499
 H         4.407870         0.567637         0.142363
 H         2.468568        -1.392838        -0.989583
 H         3.784622         0.151852        -2.491567
 H         2.197615         0.070488        -3.139136
 H         2.918115         2.522999        -2.247950
 H         1.231349         1.951386        -2.408626
 H         1.649007         2.478284         1.266201
