19
Iteration:  2281charge 0 multiplicity 1
 C        -0.053087         0.295320         0.069898
 C         1.460762         0.362592        -0.086709
 O         2.203997         0.153609         1.164502
 C         3.196441         0.556361         0.110161
 C         2.558224        -0.340053        -0.965321
 C         2.667318         0.469802        -2.321338
 C         2.120401         1.788792        -1.898935
 C         2.238794         1.660454        -0.361184
 O         2.078478         2.737543         0.466338
 H        -0.514055         1.015421         0.857111
 H        -0.620569         0.410785        -0.875217
 H        -0.272418        -0.683925         0.467076
 H         4.250791         0.413126         0.412989
 H         2.884720        -1.327740        -0.679221
 H         3.707210         0.546229        -2.592553
 H         2.130460         0.073846        -3.254349
 H         2.696935         2.643293        -2.328961
 H         1.095029         2.031563        -2.055703
 H         1.744487         2.241454         1.263693
