19
Iteration:  3355
 C        -0.036710         0.272459         0.164737
 C         1.438392         0.391639        -0.068625
 O         2.220348         0.136854         1.148760
 C         3.176034         0.533825         0.115683
 C         2.530958        -0.358999        -1.039378
 C         2.735011         0.339295        -2.321163
 C         2.243571         1.833289        -1.956789
 C         2.204454         1.665012        -0.393641
 O         1.956737         2.859909         0.509614
 H        -0.369753         1.086186         0.760204
 H        -0.556138         0.159700        -0.810755
 H        -0.122967        -0.589887         0.905048
 H         4.200982         0.914153         0.279614
 H         2.485180        -1.495580        -1.105499
 H         3.830001         0.131887        -2.585724
 H         2.206471        -0.184416        -3.170995
 H         2.920215         2.587591        -2.157240
 H         1.137964         2.067346        -2.166691
 H         1.817883         2.401875         1.374985
