19
Iteration:  2614charge 0 multiplicity 1
 C        -0.080624         0.327878         0.098047
 C         1.386991         0.277671        -0.056454
 O         2.254292         0.121181         1.163954
 C         3.191230         0.601578         0.154559
 C         2.526132        -0.326446        -1.011709
 C         2.703568         0.395978        -2.325146
 C         2.189152         1.882213        -1.874405
 C         2.247761         1.625598        -0.350748
 O         2.032126         2.766985         0.413467
 H        -0.423235         1.043550         0.788224
 H        -0.477798         0.400974        -0.932300
 H        -0.198143        -0.679637         0.637118
 H         4.242286         0.444601         0.381114
 H         2.746727        -1.372303        -1.047707
 H         3.730032         0.383653        -2.698335
 H         2.103086        -0.079343        -3.176679
 H         2.806391         2.768550        -2.184441
 H         1.136864         2.086329        -2.018135
 H         1.667435         2.519940         1.270406
