19
Iteration:  4569charge 0 multiplicity 1
 C        -0.076267         0.279050         0.204612
 C         1.385127         0.346311        -0.102817
 O         2.306414        -0.005971         1.184224
 C         3.212203         0.589127         0.123579
 C         2.512388        -0.315648        -1.006510
 C         2.670600         0.433682        -2.267208
 C         2.364408         1.867428        -1.915525
 C         2.123427         1.691688        -0.428435
 O         1.924645         2.789642         0.393022
 H        -0.345400         1.270240         0.691224
 H        -0.704284         0.153192        -0.632052
 H        -0.343206        -0.559971         0.916873
 H         4.260721         0.544770         0.420942
 H         2.774709        -1.350594        -0.999713
 H         3.715914         0.361669        -2.644334
 H         2.114566         0.061241        -3.139586
 H         3.131825         2.679708        -2.166619
 H         1.431952         2.157867        -2.430229
 H         1.845785         2.579868         1.320701
