19
Iteration:   657charge 0 multiplicity 1
 C        -0.072743         0.312073         0.086474
 C         1.430596         0.345558        -0.125756
 O         2.272444         0.039975         1.101938
 C         3.276352         0.554488         0.103436
 C         2.556092        -0.331034        -0.901513
 C         2.684615         0.363372        -2.391252
 C         2.208805         1.823688        -1.856496
 C         2.208128         1.703804        -0.311001
 O         1.932517         2.848075         0.513687
 H        -0.288516         1.200346         0.616875
 H        -0.553130         0.508831        -0.916921
 H        -0.469995        -0.586647         0.522791
 H         4.355145         0.535200         0.311074
 H         2.539529        -1.541303        -0.691300
 H         3.622589         0.202722        -2.879054
 H         1.772670        -0.027740        -3.104572
 H         2.787750         2.692021        -2.236339
 H         1.204679         1.859225        -2.312081
 H         2.135031         2.824689         1.462867
