19
Iteration:  4355charge 0 multiplicity 1
 C        -0.094648         0.181708        -0.018718
 C         1.424742         0.353953        -0.048362
 O         2.332229         0.078199         1.139836
 C         3.197370         0.571325         0.106973
 C         2.540644        -0.313617        -0.919626
 C         2.524447         0.348365        -2.259821
 C         2.251464         1.859731        -1.844010
 C         2.237287         1.740498        -0.329057
 O         2.000081         2.838778         0.428645
 H        -0.569262         1.021127         0.353944
 H        -0.166769         0.080819        -1.103187
 H        -0.251924        -0.791227         0.489974
 H         4.265318         0.695292         0.385490
 H         2.613458        -1.373125        -0.737077
 H         3.479679         0.388732        -2.823167
 H         1.739549         0.092801        -2.983953
 H         3.032309         2.545852        -2.125104
 H         1.260202         2.183904        -2.323653
 H         2.190517         2.721309         1.393574
