19
Iteration:  2625charge 0 multiplicity 1
 C        -0.062927         0.341540         0.110471
 C         1.442713         0.374320        -0.061326
 O         2.270881         0.055964         1.180118
 C         3.209420         0.590123         0.107547
 C         2.520416        -0.318919        -0.971352
 C         2.671499         0.472744        -2.299957
 C         2.265512         1.791281        -1.848227
 C         2.208826         1.637543        -0.388050
 O         1.945394         2.717711         0.386849
 H        -0.364707         1.134861         0.739333
 H        -0.706143         0.444542        -0.780422
 H        -0.502691        -0.626181         0.491405
 H         4.196863         0.937798         0.412593
 H         2.631969        -1.380344        -0.956889
 H         3.703870         0.409852        -2.634509
 H         1.970964         0.139575        -3.116169
 H         2.930614         2.624955        -2.162992
 H         1.281033         2.039610        -2.245396
 H         2.217933         2.367785         1.259978
