19
Iteration:   480charge 0 multiplicity 1
 C        -0.056065         0.324277         0.138187
 C         1.412292         0.304872        -0.070339
 O         2.290030         0.171775         1.192815
 C         3.211207         0.539402         0.176353
 C         2.568845        -0.365092        -0.982900
 C         2.588161         0.441452        -2.324796
 C         2.237368         1.877875        -1.917756
 C         2.226376         1.645382        -0.441929
 O         1.956460         2.700016         0.404915
 H        -0.276116         1.171638         0.821703
 H        -0.533042         0.492417        -0.843966
 H        -0.543509        -0.534560         0.503437
 H         4.234379         0.604630         0.581840
 H         2.734253        -1.531415        -0.823103
 H         3.642380         0.532701        -2.625656
 H         2.028719         0.050091        -3.214372
 H         3.047942         2.635664        -2.101285
 H         1.259167         2.222819        -2.226659
 H         2.087588         2.326491         1.308050
