19
Iteration:  4702
 C        -0.155240         0.137041         0.055977
 C         1.428498         0.341626        -0.031652
 O         2.189157         0.084529         1.158633
 C         3.250509         0.546125         0.060456
 C         2.531672        -0.342106        -0.940511
 C         2.614663         0.391932        -2.296965
 C         2.315497         1.856118        -1.879239
 C         2.221591         1.738424        -0.311277
 O         2.067167         2.930507         0.406059
 H        -0.471010         0.586597         0.977214
 H        -0.579558         0.549719        -0.850821
 H        -0.073060        -0.985582         0.214877
 H         4.294979         0.487773         0.396876
 H         2.722626        -1.399745        -0.841597
 H         3.555749         0.222619        -2.901006
 H         1.870657         0.004346        -3.042089
 H         2.998261         2.681411        -2.145722
 H         1.222922         2.103980        -2.142319
 H         1.757608         2.625400         1.286097
