19
Iteration:  2283charge 0 multiplicity 1
 C        -0.053054         0.297691         0.080189
 C         1.444892         0.361282        -0.064684
 O         2.202843         0.145414         1.166232
 C         3.194933         0.546030         0.097855
 C         2.545104        -0.320530        -0.966429
 C         2.683869         0.468955        -2.326120
 C         2.129713         1.783859        -1.898947
 C         2.250415         1.662856        -0.373997
 O         2.069115         2.750386         0.477752
 H        -0.516751         0.991399         0.890108
 H        -0.536914         0.374696        -0.955321
 H        -0.289663        -0.695760         0.456056
 H         4.251311         0.479777         0.387794
 H         2.908749        -1.424163        -0.736058
 H         3.686973         0.514366        -2.619741
 H         2.113537         0.024279        -3.246893
 H         2.665058         2.671393        -2.356082
 H         1.133106         2.007478        -2.108059
 H         1.770497         2.264902         1.278975
