19
Iteration:  1601
 C        -0.116494         0.171546        -0.003261
 C         1.441678         0.344417        -0.072025
 O         2.308412         0.166830         1.177752
 C         3.274277         0.535605         0.120289
 C         2.512236        -0.298462        -0.932942
 C         2.498660         0.275873        -2.286519
 C         2.347882         1.881125        -1.868973
 C         2.328211         1.710141        -0.353187
 O         1.919807         2.860700         0.434191
 H        -0.466525         0.793975         0.813528
 H        -0.683582         0.479218        -0.994062
 H        -0.534453        -0.845852         0.308091
 H         4.313724         0.510387         0.217187
 H         2.669567        -1.414734        -0.901381
 H         3.349596         0.191494        -2.990702
 H         1.522012         0.058061        -2.766129
 H         3.202038         2.530145        -2.181547
 H         1.311593         2.195330        -2.035678
 H         2.116843         2.763046         1.368551
