19
Iteration:   250charge 0 multiplicity 1
 C        -0.040752         0.030326         0.030541
 C         1.399095         0.332690        -0.088117
 O         2.236245         0.216240         1.154913
 C         3.206068         0.670680         0.126682
 C         2.499789        -0.386795        -0.960872
 C         2.474350         0.361394        -2.304952
 C         2.412481         1.907866        -1.820995
 C         2.135904         1.694234        -0.357805
 O         2.122249         2.842222         0.421296
 H        -0.573625         0.801887         0.745980
 H        -0.483402         0.199014        -0.924840
 H        -0.327373        -1.018829         0.417285
 H         4.186709         0.982050         0.515442
 H         2.403676        -1.458255        -0.818824
 H         3.309546         0.160916        -3.031482
 H         1.552729         0.102790        -2.809310
 H         3.379626         2.487212        -1.947381
 H         1.557092         2.276602        -2.292593
 H         2.105403         2.354036         1.299381
