19
Iteration:  2430
 C        -0.027513         0.268191         0.043965
 C         1.412576         0.412230        -0.052337
 O         2.226214         0.055145         1.101316
 C         3.182521         0.494434         0.112559
 C         2.569903        -0.306081        -0.926846
 C         2.642533         0.398090        -2.251488
 C         2.121258         1.825933        -1.835316
 C         2.252352         1.725202        -0.345762
 O         2.085439         2.827190         0.381720
 H        -0.527575         0.921274         0.721351
 H        -0.438309         0.219129        -0.972377
 H        -0.334231        -0.778760         0.432783
 H         4.200439         0.568987         0.521658
 H         2.591495        -1.346813        -0.768466
 H         3.726800         0.678191        -2.533361
 H         2.191708        -0.092838        -3.042423
 H         2.710824         2.535697        -2.328565
 H         1.016318         2.050157        -2.110597
 H         1.921671         2.454316         1.279201
