19
Iteration:  2554
 C        -0.131744        -0.062803        -0.059235
 C         1.384096         0.277117         0.009469
 O         2.250020         0.143490         1.208779
 C         3.212468         0.632322         0.123384
 C         2.472121        -0.337609        -0.945500
 C         2.435148         0.440890        -2.286200
 C         2.403320         1.865717        -1.832094
 C         2.218703         1.705220        -0.327191
 O         2.198940         2.983960         0.399349
 H        -0.764865         0.589677         0.683571
 H        -0.510998        -0.001305        -1.087636
 H        -0.249354        -1.095703         0.168208
 H         4.297861         0.717896         0.399780
 H         2.522567        -1.461391        -1.015890
 H         3.291946         0.285692        -2.970983
 H         1.546852         0.178283        -2.830170
 H         3.383725         2.315356        -2.125723
 H         1.654920         2.492144        -2.418180
 H         1.607807         2.838666         1.151060
