19
Iteration:  4312charge 0 multiplicity 1
 C        -0.042420        -0.034863        -0.008407
 C         1.410864         0.367429         0.042572
 O         2.210513         0.217460         1.159193
 C         3.193892         0.578177         0.082990
 C         2.525530        -0.312986        -0.917197
 C         2.409886         0.470301        -2.207606
 C         2.382273         1.898282        -1.821492
 C         2.249587         1.661439        -0.428873
 O         2.099384         2.845751         0.398636
 H        -0.705177         0.607909         0.496476
 H        -0.284452         0.267066        -1.120173
 H        -0.140117        -1.211558         0.047619
 H         4.245360         0.637277         0.456636
 H         2.705399        -1.382605        -1.018551
 H         3.179977         0.200239        -2.928185
 H         1.513891         0.102277        -2.778718
 H         3.282601         2.390786        -2.222599
 H         1.561711         2.620228        -2.136322
 H         2.014030         2.373275         1.249027
