19
Iteration:  3820charge 0 multiplicity 1
 C        -0.089469         0.034842         0.089065
 C         1.359022         0.333081        -0.121802
 O         2.320597         0.152629         1.198488
 C         3.158129         0.479632         0.127620
 C         2.458546        -0.327358        -0.939842
 C         2.613559         0.534012        -2.307528
 C         2.336299         1.960337        -1.876059
 C         2.193297         1.661059        -0.362212
 O         2.026978         2.814277         0.424414
 H        -0.405703         0.893226         0.627288
 H        -0.603291         0.130136        -0.872527
 H        -0.413417        -0.999235         0.525999
 H         4.236961         0.577153         0.268804
 H         2.676852        -1.379616        -1.014236
 H         3.527662         0.611648        -2.888573
 H         1.763865         0.230079        -3.049437
 H         3.366765         2.504002        -1.970973
 H         1.576512         2.548746        -2.334798
 H         2.243293         2.447534         1.302543
