19
Iteration:  1364
 C         0.010833         0.307799         0.179330
 C         1.465281         0.380771        -0.035124
 O         2.271210         0.094057         1.159047
 C         3.212020         0.548707         0.008881
 C         2.435224        -0.294471        -0.935980
 C         2.712687         0.376385        -2.274623
 C         2.210509         1.823884        -1.872136
 C         2.245443         1.685865        -0.369479
 O         1.902804         2.770093         0.374195
 H        -0.239757         1.095198         0.872582
 H        -0.468159         0.435988        -0.717974
 H        -0.270463        -0.680898         0.604917
 H         4.377122         0.541518         0.157484
 H         2.487347        -1.351586        -1.011558
 H         3.712062         0.152007        -2.490097
 H         2.191610         0.070801        -3.165223
 H         2.942169         2.569341        -2.240682
 H         1.260004         1.952031        -2.358887
 H         1.603204         2.583222         1.274875
