19
Iteration:  4515charge 0 multiplicity 1
 C        -0.063130         0.050613        -0.051195
 C         1.436976         0.345718         0.033208
 O         2.278763         0.213745         1.202594
 C         3.240093         0.617547         0.075304
 C         2.475236        -0.334217        -0.883439
 C         2.524778         0.361822        -2.252511
 C         2.296761         1.958950        -1.885267
 C         2.193793         1.688069        -0.395009
 O         2.068473         2.775201         0.416498
 H        -0.786556         0.712182         0.549204
 H        -0.292102         0.393459        -1.039915
 H        -0.593571        -0.953226         0.017697
 H         4.276634         0.561472         0.376528
 H         2.567471        -1.395501        -0.880673
 H         3.469416         0.415870        -2.866961
 H         1.727077        -0.081063        -2.881293
 H         3.269316         2.480958        -2.096188
 H         1.363564         2.412883        -2.248146
 H         2.078425         2.513100         1.344773
