19
Iteration:  2057
 C        -0.102720         0.173554         0.095321
 C         1.442044         0.366612        -0.004195
 O         2.350876         0.164698         1.138072
 C         3.265069         0.511224         0.043715
 C         2.461181        -0.368034        -0.993512
 C         2.494872         0.405179        -2.295673
 C         2.389303         1.964810        -1.834705
 C         2.225767         1.631870        -0.336330
 O         1.945864         2.801383         0.451598
 H        -0.648683         0.980648         0.544359
 H        -0.419679         0.241057        -1.044308
 H        -0.505747        -0.850510         0.225821
 H         4.344660         0.586770         0.221183
 H         2.378638        -1.469843        -0.769255
 H         3.508198         0.282592        -2.875817
 H         1.671095         0.264472        -2.985297
 H         3.343717         2.542468        -1.934674
 H         1.566213         2.584857        -2.330395
 H         1.796677         2.299750         1.290917
