19
Iteration:  1465
 C         0.039977        -0.050839        -0.099859
 C         1.463481         0.423414        -0.003950
 O         2.256137         0.230938         1.181331
 C         3.166136         0.633222         0.102025
 C         2.391547        -0.287676        -0.884756
 C         2.318972         0.300730        -2.238418
 C         2.348406         1.892942        -1.855282
 C         2.249610         1.696814        -0.358204
 O         2.133425         2.864856         0.406521
 H        -0.708111         0.467980         0.540689
 H        -0.202933         0.004989        -1.136785
 H         0.006807        -1.105707         0.098409
 H         4.325345         0.706517         0.485148
 H         2.577932        -1.415375        -0.871230
 H         3.212755         0.300231        -2.848336
 H         1.406098        -0.015903        -2.711740
 H         3.350304         2.180491        -2.062135
 H         1.582254         2.610051        -2.261715
 H         2.363295         2.582882         1.294769
