19
Iteration:  2779
 C        -0.068778         0.194029         0.066911
 C         1.467191         0.373224        -0.064142
 O         2.230660         0.082270         1.145131
 C         3.249263         0.577819         0.103696
 C         2.532470        -0.302615        -0.887369
 C         2.622126         0.367716        -2.301426
 C         2.238060         1.928754        -1.855759
 C         2.174205         1.663166        -0.384459
 O         2.044665         2.790449         0.402934
 H        -0.432926         1.072698         0.541687
 H        -0.490503         0.102590        -0.925097
 H        -0.247073        -0.693804         0.771283
 H         4.286054         0.804690         0.434289
 H         2.603859        -1.380757        -0.872728
 H         3.461151         0.196879        -2.972106
 H         1.696530         0.049831        -2.787077
 H         2.982159         2.822785        -2.113472
 H         1.319048         2.093984        -2.407564
 H         1.731733         2.482597         1.299985
