19
Iteration:  4066
 C        -0.054765         0.222898         0.064670
 C         1.418444         0.402864        -0.076062
 O         2.293895         0.095049         1.169483
 C         3.284591         0.403149         0.088915
 C         2.517885        -0.254043        -0.935466
 C         2.596284         0.368417        -2.284681
 C         2.278421         1.989858        -1.937201
 C         2.157541         1.718371        -0.388170
 O         1.912754         2.774061         0.508640
 H        -0.569129         0.629970         0.992536
 H        -0.522008         0.609935        -0.839275
 H        -0.254692        -0.815699         0.120241
 H         4.359957         0.283472         0.305249
 H         2.627789        -1.388219        -0.870324
 H         3.666458         0.256073        -2.648844
 H         2.032286        -0.085775        -3.066618
 H         2.978692         2.722053        -2.151696
 H         1.366315         2.252647        -2.478389
 H         2.506766         2.555418         1.275017
