19
Iteration:  3167
 C        -0.042203         0.356272         0.188938
 C         1.442771         0.375883        -0.044322
 O         2.333474         0.088904         1.204472
 C         3.206610         0.557114         0.059562
 C         2.508557        -0.362229        -0.963932
 C         2.656666         0.462194        -2.363802
 C         2.372500         1.843217        -1.847841
 C         2.197047         1.625413        -0.376034
 O         1.774220         2.728708         0.331054
 H        -0.551416         1.048541         0.814918
 H        -0.720069         0.093695        -0.573095
 H        -0.056605        -0.598435         0.816258
 H         4.300909         0.688017         0.234287
 H         2.532312        -1.418032        -0.945993
 H         3.674488         0.372174        -2.797857
 H         2.088646        -0.026788        -3.090999
 H         3.247012         2.414899        -2.044021
 H         1.463961         2.448168        -2.219266
 H         2.073417         2.739426         1.270509
