19
Iteration:   623
 C        -0.019398         0.099684         0.130548
 C         1.386994         0.314680        -0.039738
 O         2.227367         0.190289         1.238352
 C         3.211374         0.573422         0.090806
 C         2.433164        -0.344580        -0.955585
 C         2.588427         0.481296        -2.337511
 C         2.399079         1.970211        -1.915103
 C         2.188488         1.602633        -0.368091
 O         2.053853         2.759874         0.366827
 H        -0.388293         0.833045         0.816480
 H        -0.474349         0.344604        -0.897952
 H        -0.335708        -0.847878         0.452596
 H         4.295680         0.576196         0.293172
 H         2.423271        -1.487648        -0.709722
 H         3.490435         0.217133        -2.879741
 H         1.743979         0.310535        -3.161360
 H         3.161801         2.777253        -1.868605
 H         1.491365         2.420997        -2.363772
 H         1.722942         2.426139         1.240965
