19
Iteration:  4112
 C        -0.088030        -0.051793         0.114214
 C         1.364926         0.348156        -0.006669
 O         2.202177         0.045837         1.115379
 C         3.163650         0.550680         0.137345
 C         2.536131        -0.266156        -0.970789
 C         2.573771         0.498938        -2.264313
 C         2.388876         1.957566        -1.917608
 C         2.134500         1.689317        -0.382920
 O         2.175946         2.892613         0.394118
 H        -0.457892         0.497342         0.996919
 H        -0.737073         0.159275        -0.713369
 H        -0.158960        -1.142917         0.544047
 H         4.165646         0.592042         0.508868
 H         2.528554        -1.360168        -0.986476
 H         3.334199         0.345155        -3.084634
 H         1.643675         0.272928        -2.773023
 H         3.343085         2.360510        -1.975975
 H         1.733294         2.692245        -2.474725
 H         1.560493         2.990004         1.160734
