19
Iteration:  3876
 C        -0.039304         0.393753        -0.077667
 C         1.435633         0.252552        -0.123226
 O         2.343620         0.095693         1.193044
 C         3.267768         0.533568         0.147940
 C         2.627258        -0.367996        -0.954943
 C         2.557172         0.430967        -2.324842
 C         2.158878         1.904562        -1.861439
 C         2.195199         1.563742        -0.292074
 O         1.897587         2.783295         0.497050
 H        -0.226654         0.883969         0.870423
 H        -0.389688         1.052396        -0.942741
 H        -0.551315        -0.606265         0.051552
 H         4.356591         0.715567         0.372480
 H         2.963267        -1.388841        -1.044278
 H         3.447962         0.392550        -2.958161
 H         1.680461        -0.080803        -2.912607
 H         2.901244         2.792123        -2.027396
 H         1.166593         2.145931        -2.139539
 H         2.245328         2.629055         1.395669
