19
Iteration:  4938charge 0 multiplicity 1
 C         0.034294         0.289404         0.051732
 C         1.502656         0.373201        -0.006461
 O         2.303260         0.122460         1.254585
 C         3.246199         0.517436         0.064091
 C         2.420812        -0.365936        -1.020602
 C         2.604769         0.467505        -2.343408
 C         2.316650         1.854736        -1.839745
 C         2.188553         1.650673        -0.338113
 O         1.858548         2.766407         0.402522
 H        -0.514307         0.992286         0.778941
 H        -0.462080         0.503569        -0.866533
 H        -0.294900        -0.797214         0.168910
 H         4.415546         0.309637         0.291712
 H         2.514399        -1.475597        -0.879825
 H         3.613666         0.223592        -2.793404
 H         1.903053         0.186084        -3.197293
 H         3.260304         2.541936        -2.068025
 H         1.378883         2.324904        -2.238519
 H         1.712948         2.665613         1.352621
