19
Iteration:   640charge 0 multiplicity 1
 C        -0.131439         0.261348         0.103234
 C         1.422290         0.374983        -0.038285
 O         2.289719         0.092464         1.131714
 C         3.193611         0.545031         0.091535
 C         2.558362        -0.305474        -0.987925
 C         2.598611         0.395067        -2.291035
 C         2.291152         1.856006        -1.861363
 C         2.219053         1.673875        -0.383929
 O         2.001952         2.790398         0.432128
 H        -0.567601         0.987472         0.880473
 H        -0.668435         0.322371        -0.815251
 H        -0.342447        -0.784399         0.535172
 H         4.236478         0.706648         0.409036
 H         2.829498        -1.286966        -1.080218
 H         3.689347         0.452967        -2.591572
 H         1.992927        -0.067581        -2.948914
 H         3.160770         2.419573        -2.226038
 H         1.341945         2.306072        -2.190240
 H         1.727570         2.349336         1.285163
