19
Iteration:   350
 C        -0.067558         0.141778        -0.005635
 C         1.374577         0.344644        -0.091848
 O         2.312040         0.157079         1.204250
 C         3.257164         0.585416         0.047267
 C         2.485027        -0.323163        -0.926296
 C         2.545595         0.387527        -2.293443
 C         2.262643         1.842397        -1.827786
 C         2.151834         1.662042        -0.308841
 O         2.060497         2.851747         0.403666
 H        -0.415151         0.886071         0.767278
 H        -0.687486         0.331209        -0.914719
 H        -0.315270        -0.835818         0.424750
 H         4.325010         0.746648         0.155768
 H         2.517578        -1.466651        -0.755836
 H         3.574705         0.311915        -2.563565
 H         1.968820         0.019803        -3.192266
 H         3.090610         2.465933        -1.992298
 H         1.476706         2.391346        -2.210562
 H         2.277262         2.464431         1.301956
