19
Iteration:  4095
 C        -0.030433         0.028622         0.142669
 C         1.349237         0.317652        -0.133686
 O         2.245443         0.099766         1.207879
 C         3.149118         0.551462         0.099035
 C         2.429490        -0.273121        -1.010241
 C         2.543266         0.447196        -2.370157
 C         2.422299         1.938047        -1.745799
 C         2.205890         1.667832        -0.317313
 O         2.097140         2.879390         0.340347
 H        -0.515597         0.526521         0.976382
 H        -0.685717         0.348406        -0.726558
 H        -0.102618        -1.073599         0.241635
 H         4.252648         0.744185         0.214213
 H         2.623924        -1.338799        -0.878726
 H         3.584357         0.337418        -2.595553
 H         1.888970         0.168789        -3.264685
 H         3.289706         2.734880        -1.925568
 H         1.504044         2.384375        -2.110953
 H         1.738505         2.512222         1.190694
