19
Iteration:  3008
 C        -0.014592         0.246010         0.142422
 C         1.487667         0.403640        -0.034519
 O         2.292970         0.092834         1.182272
 C         3.213719         0.591551         0.116925
 C         2.492725        -0.271907        -0.963538
 C         2.608970         0.314557        -2.452817
 C         2.382343         1.819880        -1.882398
 C         2.208122         1.702434        -0.353051
 O         1.791512         2.778430         0.437414
 H        -0.399327         1.107616         0.717207
 H        -0.368977         0.211947        -0.901732
 H        -0.203703        -0.730280         0.685531
 H         4.271852         0.514891         0.306096
 H         2.496984        -1.335062        -0.619396
 H         3.556193         0.274448        -2.997952
 H         1.768168        -0.012704        -3.198604
 H         3.339142         2.412205        -1.958657
 H         1.660879         2.411995        -2.351288
 H         1.858929         2.671013         1.395490
