19
Iteration:  3300charge 0 multiplicity 1
 C         0.003294         0.178668         0.129869
 C         1.471779         0.339813        -0.043563
 O         2.237021         0.155241         1.176965
 C         3.254447         0.519306         0.132279
 C         2.462371        -0.312166        -0.948984
 C         2.573134         0.388152        -2.361305
 C         2.351529         1.814442        -1.887576
 C         2.258663         1.686656        -0.336693
 O         1.863140         2.886399         0.374488
 H        -0.266754         0.830755         0.902132
 H        -0.542604         0.628029        -0.700895
 H        -0.307066        -0.916719         0.280782
 H         4.349470         0.432207         0.235888
 H         2.810475        -1.380592        -0.881900
 H         3.394132        -0.031573        -2.979062
 H         1.683553         0.043717        -2.955746
 H         3.242401         2.373894        -1.963792
 H         1.651809         2.557368        -2.398594
 H         1.760374         2.564028         1.298257
