19
Iteration:  2060
 C        -0.118848         0.186508         0.090188
 C         1.440326         0.380890        -0.051963
 O         2.376332         0.140108         1.127195
 C         3.259775         0.535835         0.068793
 C         2.448795        -0.387214        -0.956521
 C         2.499326         0.423082        -2.294857
 C         2.379666         1.951840        -1.842028
 C         2.227627         1.642944        -0.334470
 O         1.949422         2.787370         0.460274
 H        -0.627138         1.051493         0.555135
 H        -0.384912         0.298663        -0.986652
 H        -0.518680        -0.857832         0.236381
 H         4.377468         0.570349         0.218001
 H         2.486957        -1.399643        -0.843579
 H         3.461166         0.338586        -2.832430
 H         1.704444         0.156190        -2.977408
 H         3.275381         2.475749        -2.010269
 H         1.555266         2.499984        -2.335169
 H         1.707474         2.361507         1.299567
