19
Iteration:  4791charge 0 multiplicity 1
 C        -0.036630         0.137475         0.011667
 C         1.416058         0.333945        -0.007854
 O         2.244382         0.139586         1.166979
 C         3.253652         0.559610         0.100972
 C         2.543362        -0.293621        -0.966480
 C         2.478747         0.398424        -2.334912
 C         2.383746         1.861082        -1.819459
 C         2.199807         1.657383        -0.352132
 O         2.010360         2.851042         0.429530
 H        -0.549453         1.029567         0.254024
 H        -0.343449         0.032140        -1.035666
 H        -0.419501        -0.619112         0.665896
 H         4.212342         0.719048         0.520599
 H         2.569162        -1.383951        -0.975975
 H         3.394249         0.311126        -2.968407
 H         1.641149        -0.040685        -2.860688
 H         3.168401         2.460377        -2.145126
 H         1.337093         2.291411        -2.109994
 H         1.938333         2.641107         1.399524
