19
Iteration:   940
 C        -0.013871        -0.111944         0.028098
 C         1.315629         0.468353        -0.056352
 O         2.268936         0.059124         1.190200
 C         3.057266         0.592806         0.090579
 C         2.449731        -0.292635        -0.950266
 C         2.439744         0.473778        -2.314127
 C         2.490310         1.844610        -1.837941
 C         2.192418         1.732173        -0.338635
 O         2.204410         2.983610         0.413987
 H        -0.706194         0.324865         0.772060
 H        -0.651596        -0.203289        -0.871077
 H         0.194425        -1.158783         0.413165
 H         4.129701         0.751899         0.235208
 H         2.616614        -1.415310        -0.983223
 H         3.308242        -0.051895        -2.712627
 H         1.559991         0.153544        -2.889368
 H         3.462301         2.369879        -2.017693
 H         1.590267         2.389615        -2.389555
 H         1.638973         2.823736         1.189919
