19
Iteration:  4933
 C         0.022852         0.300430         0.083992
 C         1.502643         0.374871         0.031568
 O         2.278555         0.078890         1.240884
 C         3.294248         0.571925         0.051626
 C         2.397154        -0.365024        -1.010917
 C         2.581966         0.466963        -2.380957
 C         2.369851         1.856703        -1.851590
 C         2.207937         1.681137        -0.312737
 O         1.836840         2.734461         0.363900
 H        -0.499863         0.858073         0.814366
 H        -0.448491         0.694161        -0.873792
 H        -0.361395        -0.671032         0.274990
 H         4.256703         0.438699         0.382265
 H         2.658313        -1.435270        -0.877476
 H         3.591019         0.216604        -2.677792
 H         2.040108         0.109366        -3.226193
 H         3.121492         2.526667        -2.043227
 H         1.416200         2.349234        -2.205692
 H         1.742797         2.395564         1.293461
