19
Iteration:  2443
 C        -0.038960         0.286260         0.047818
 C         1.470998         0.409060        -0.072582
 O         2.162828         0.037311         1.170208
 C         3.297466         0.488860         0.154162
 C         2.565113        -0.340952        -0.965558
 C         2.670170         0.422220        -2.284090
 C         2.107403         1.821494        -1.942325
 C         2.222175         1.659511        -0.364393
 O         2.062141         2.876739         0.461965
 H        -0.363420         1.150172         0.738003
 H        -0.675632         0.449431        -0.795343
 H        -0.135996        -0.658552         0.586064
 H         4.383752         0.421960         0.456107
 H         2.715664        -1.381126        -1.120723
 H         3.784400         0.347809        -2.614970
 H         2.117823        -0.077313        -3.049628
 H         2.586000         2.746730        -2.339445
 H         0.924499         1.857408        -2.180118
 H         1.421010         2.701945         1.198456
