19
Iteration:  2434charge 0 multiplicity 1
 C        -0.028331         0.280016         0.030742
 C         1.433893         0.431273        -0.036772
 O         2.198634         0.038515         1.111986
 C         3.221030         0.484296         0.119907
 C         2.589031        -0.307034        -0.965810
 C         2.638751         0.395898        -2.217972
 C         2.112936         1.811711        -1.884237
 C         2.227372         1.714333        -0.372468
 O         2.081544         2.844058         0.411753
 H        -0.452668         1.038551         0.824254
 H        -0.556776         0.234375        -0.916118
 H        -0.154544        -0.689005         0.448246
 H         4.250542         0.503148         0.546047
 H         2.676668        -1.419859        -0.965912
 H         3.704902         0.580324        -2.448376
 H         2.208569        -0.258210        -3.039787
 H         2.684033         2.729545        -2.325357
 H         0.990463         2.034412        -2.005240
 H         1.718403         2.541724         1.285961
