19
Iteration:  1019
 C        -0.019481         0.428712         0.048109
 C         1.450220         0.336165        -0.074610
 O         2.335390         0.022998         1.189757
 C         3.237330         0.559940         0.026298
 C         2.539896        -0.305561        -0.933551
 C         2.650854         0.394520        -2.278397
 C         2.193559         1.804310        -1.947448
 C         2.292256         1.732137        -0.345908
 O         1.832742         2.763324         0.520690
 H        -0.483556         1.272685         0.703564
 H        -0.390741         0.543166        -0.926707
 H        -0.423662        -0.578670         0.431565
 H         4.235062         0.490368         0.279989
 H         2.704423        -1.350395        -0.938840
 H         3.606543         0.251929        -2.675005
 H         1.965673        -0.287352        -2.865597
 H         2.849197         2.640771        -2.365133
 H         1.154883         1.943931        -2.443351
 H         1.843454         2.231347         1.371312
