19
Iteration:   756charge 0 multiplicity 1
 C        -0.060008        -0.123938         0.079387
 C         1.368054         0.265729        -0.116355
 O         2.194752         0.275963         1.223572
 C         3.157682         0.508277         0.157688
 C         2.440874        -0.268315        -1.040145
 C         2.442786         0.495710        -2.305766
 C         2.505546         1.883518        -1.804336
 C         2.269475         1.725369        -0.376974
 O         2.094500         2.909264         0.382745
 H        -0.371023         0.518414         0.891695
 H        -0.617604         0.077820        -0.846388
 H        -0.075960        -1.199377         0.409160
 H         4.218587         0.554373         0.316228
 H         2.664620        -1.411784        -1.029091
 H         3.236592         0.230301        -2.959880
 H         1.362474         0.247206        -2.768949
 H         3.552347         2.169651        -1.998100
 H         1.742060         2.506679        -2.308398
 H         2.050832         2.660095         1.338654
