19
Iteration:  4432charge 0 multiplicity 1
 C        -0.089816         0.139041         0.116367
 C         1.401438         0.337723        -0.034644
 O         2.323330         0.118378         1.169063
 C         3.166965         0.594497         0.133471
 C         2.438923        -0.332781        -0.938555
 C         2.609100         0.382104        -2.351303
 C         2.401573         1.896436        -1.907197
 C         2.153464         1.675501        -0.364859
 O         1.971932         2.838312         0.413574
 H        -0.465170         0.805309         0.827723
 H        -0.574992         0.315323        -0.899373
 H        -0.158601        -0.915132         0.410582
 H         4.240573         0.714736         0.421676
 H         2.776013        -1.394282        -0.963448
 H         3.617856         0.344173        -2.826030
 H         1.958639        -0.042076        -3.162180
 H         3.223730         2.599927        -2.045842
 H         1.578170         2.565084        -2.381061
 H         1.980882         2.531194         1.326392
