19
Iteration:  2872
 C        -0.064658        -0.020048         0.041540
 C         1.371034         0.439526        -0.087235
 O         2.195103         0.169222         1.138175
 C         3.136735         0.568060         0.132870
 C         2.571983        -0.251528        -0.910937
 C         2.491698         0.395687        -2.290417
 C         2.309415         1.833720        -1.907125
 C         2.296432         1.719142        -0.286994
 O         2.115967         2.864965         0.391252
 H        -0.540580         0.495292         0.936986
 H        -0.631933         0.236728        -0.866776
 H        -0.107531        -1.089938         0.271289
 H         4.224423         0.634543         0.436458
 H         2.832644        -1.300090        -0.749666
 H         3.475444         0.225383        -2.843642
 H         1.685109        -0.074762        -2.893130
 H         3.072861         2.440866        -2.256264
 H         1.367110         2.352666        -2.249619
 H         2.179295         2.468320         1.309609
