19
Iteration:  2777charge 0 multiplicity 1
 C        -0.072704         0.186773         0.060991
 C         1.449339         0.368788        -0.075271
 O         2.237912         0.094686         1.151547
 C         3.249538         0.558306         0.107588
 C         2.536122        -0.298308        -0.882196
 C         2.623666         0.370188        -2.296223
 C         2.243980         1.921445        -1.870962
 C         2.175514         1.650583        -0.374037
 O         2.061021         2.800046         0.408528
 H        -0.508661         1.025288         0.556298
 H        -0.494155         0.083718        -0.935063
 H        -0.218376        -0.699542         0.760469
 H         4.221202         0.889967         0.387412
 H         2.582383        -1.344693        -0.890885
 H         3.441507         0.295847        -2.940315
 H         1.680633         0.062255        -2.822003
 H         2.941695         2.793022        -2.148509
 H         1.285526         2.136361        -2.360040
 H         1.711768         2.487967         1.261321
