19
Iteration:  4579
 C        -0.105356         0.285685         0.173152
 C         1.329247         0.264720        -0.107193
 O         2.390864         0.044235         1.237583
 C         3.114560         0.571151         0.138566
 C         2.472908        -0.328449        -1.016243
 C         2.726941         0.409189        -2.363454
 C         2.331424         1.910214        -1.858089
 C         2.208063         1.636570        -0.344932
 O         1.908699         2.827493         0.346560
 H        -0.301516         1.279724         0.663533
 H        -0.563914         0.141196        -0.725107
 H        -0.125387        -0.514971         0.909263
 H         4.198464         0.688058         0.125370
 H         2.523439        -1.405238        -0.896992
 H         3.753134         0.440141        -2.650874
 H         2.018289         0.190658        -3.149109
 H         3.268048         2.619966        -2.082142
 H         1.523186         2.379212        -2.345905
 H         1.861058         2.380190         1.211549
