19
Iteration:  2444charge 0 multiplicity 1
 C        -0.036609         0.282421         0.054343
 C         1.472164         0.397140        -0.082907
 O         2.161679         0.040823         1.179314
 C         3.302630         0.488403         0.157292
 C         2.558001        -0.339866        -0.958253
 C         2.683057         0.429417        -2.301394
 C         2.105088         1.819258        -1.941216
 C         2.227357         1.656239        -0.356033
 O         2.058235         2.878438         0.465675
 H        -0.373568         1.181212         0.753898
 H        -0.675347         0.468494        -0.791414
 H        -0.183649        -0.627147         0.585906
 H         4.393578         0.424485         0.442753
 H         2.708234        -1.416050        -1.106193
 H         3.768282         0.339765        -2.654978
 H         2.060511        -0.047859        -3.103301
 H         2.607360         2.773795        -2.374096
 H         0.930491         1.828259        -2.233095
 H         1.396024         2.710956         1.169779
