19
Iteration:  2201
 C        -0.049293        -0.013290         0.031471
 C         1.443859         0.313656         0.004168
 O         2.189503         0.140883         1.210980
 C         3.260930         0.529735         0.085409
 C         2.523407        -0.313848        -0.960182
 C         2.329286         0.485110        -2.335171
 C         2.534565         1.938781        -1.833349
 C         2.246653         1.717323        -0.340064
 O         2.005900         2.866559         0.344829
 H        -0.483129         0.703140         0.773206
 H        -0.686307         0.125945        -0.847206
 H        -0.237772        -1.083141         0.375284
 H         4.353170         0.583781         0.360503
 H         2.626322        -1.339495        -0.817782
 H         3.115862         0.224673        -3.162119
 H         1.353318         0.259596        -2.705367
 H         3.541370         2.313179        -1.862651
 H         1.841346         2.801289        -2.233410
 H         1.862325         2.547407         1.265721
