19
Iteration:  3158charge 0 multiplicity 1
 C        -0.013081         0.317189         0.229492
 C         1.456869         0.411309         0.006271
 O         2.313959         0.094169         1.141828
 C         3.227714         0.549666         0.090511
 C         2.524233        -0.286574        -1.017509
 C         2.650523         0.301038        -2.417705
 C         2.400408         1.934467        -1.832474
 C         2.200191         1.655130        -0.344367
 O         1.725337         2.720589         0.369260
 H        -0.411839         1.151012         0.735988
 H        -0.474604         0.324326        -0.779470
 H        -0.286706        -0.708004         0.775543
 H         4.292530         0.510382         0.354119
 H         2.586369        -1.382276        -0.880520
 H         3.634057        -0.030981        -2.784570
 H         1.870492        -0.102875        -3.134974
 H         3.272090         2.545649        -2.094503
 H         1.432756         2.415274        -2.390108
 H         1.973100         2.794197         1.316517
