19
Iteration:  1652charge 0 multiplicity 1
 C        -0.107847        -0.067080        -0.055114
 C         1.404606         0.358929        -0.068035
 O         2.205276         0.195509         1.161361
 C         3.165744         0.568230         0.147762
 C         2.500489        -0.348451        -0.903438
 C         2.394280         0.369792        -2.285189
 C         2.296858         1.887465        -1.855237
 C         2.335408         1.752288        -0.362897
 O         2.242601         2.962796         0.455717
 H        -0.844571         0.338749         0.624332
 H        -0.468100        -0.171042        -1.065137
 H        -0.005948        -1.063772         0.254832
 H         4.312485         0.666276         0.440784
 H         2.625202        -1.381213        -0.691465
 H         3.303393         0.415352        -2.917561
 H         1.562008         0.111171        -2.881424
 H         3.020568         2.549602        -2.343961
 H         1.290592         2.224484        -2.216261
 H         2.056531         2.676132         1.379798
