19
Iteration:  4983
 C         0.022599         0.039667        -0.049271
 C         1.372712         0.357711        -0.038511
 O         2.155815         0.119262         1.221793
 C         3.150181         0.598749         0.130825
 C         2.520908        -0.246122        -0.952398
 C         2.498937         0.428200        -2.373731
 C         2.267029         1.846269        -1.900463
 C         2.193271         1.718701        -0.297102
 O         2.220732         2.843023         0.485813
 H        -0.674399         0.812974         0.367178
 H        -0.325810        -0.082654        -1.066413
 H        -0.192871        -0.935641         0.517200
 H         4.223763         0.977842         0.403027
 H         2.714260        -1.288170        -0.907769
 H         3.375331         0.235613        -3.039404
 H         1.727269        -0.190451        -2.906113
 H         3.113153         2.653107        -2.141945
 H         1.347307         2.267309        -2.264439
 H         2.246238         2.381922         1.359399
