19
Iteration:  4696
 C        -0.135926         0.091439         0.026504
 C         1.427633         0.381053         0.004194
 O         2.215526         0.126086         1.166990
 C         3.210646         0.505701         0.085034
 C         2.548697        -0.311911        -0.977049
 C         2.562466         0.378145        -2.355111
 C         2.313521         1.833596        -1.814708
 C         2.265074         1.750735        -0.299325
 O         2.063951         2.914117         0.402118
 H        -0.664778         0.494402         0.939538
 H        -0.561189         0.515276        -0.946254
 H        -0.186977        -0.965598         0.040793
 H         4.309323         0.491585         0.231956
 H         2.640668        -1.404215        -0.686854
 H         3.585625         0.236241        -2.676830
 H         1.875157         0.041348        -3.103492
 H         2.967901         2.610177        -2.241289
 H         1.339011         2.111927        -2.150133
 H         1.806609         2.827290         1.322018
