19
Iteration:  2144
 C        -0.121029         0.092249         0.057687
 C         1.410178         0.410865         0.050361
 O         2.325637         0.102804         1.128777
 C         3.172290         0.568781         0.058668
 C         2.423683        -0.273722        -1.018664
 C         2.568417         0.418868        -2.291441
 C         2.330511         1.840599        -1.866606
 C         2.192043         1.718797        -0.362439
 O         2.093809         2.836324         0.492447
 H        -0.766443         0.627442         0.685052
 H        -0.412032         0.237193        -1.051969
 H        -0.313839        -0.977789         0.313070
 H         4.263246         0.573489         0.169987
 H         2.672536        -1.394663        -0.902327
 H         3.694523         0.319688        -2.572851
 H         2.015606        -0.022562        -3.097916
 H         3.170051         2.530754        -2.134538
 H         1.406763         2.275938        -2.391518
 H         1.733240         2.633602         1.385354
