19
Iteration:  1826charge 0 multiplicity 1
 C         0.002795        -0.090344        -0.025163
 C         1.397008         0.342289        -0.005199
 O         2.141936         0.188449         1.145517
 C         3.183270         0.569940         0.163975
 C         2.475794        -0.269267        -0.914661
 C         2.451200         0.470626        -2.316757
 C         2.275468         1.961489        -1.797879
 C         2.235417         1.729641        -0.361053
 O         2.228783         2.827910         0.369898
 H        -0.603736         0.610944         0.657154
 H        -0.681799        -0.208182        -0.942832
 H        -0.038136        -1.095412         0.380170
 H         4.207096         0.490092         0.458790
 H         2.555476        -1.369902        -0.928571
 H         3.454038         0.086482        -2.702970
 H         1.731242         0.334551        -3.111646
 H         3.218264         2.409097        -2.198930
 H         1.410436         2.475165        -2.184832
 H         2.449692         2.583875         1.276939
