19
Iteration:   406charge 0 multiplicity 1
 C        -0.010748        -0.028226         0.037265
 C         1.408814         0.283195        -0.007468
 O         2.192254         0.221488         1.133328
 C         3.162238         0.618871         0.121526
 C         2.529547        -0.354737        -0.948989
 C         2.388156         0.411859        -2.297778
 C         2.403137         1.924778        -1.776615
 C         2.185352         1.718579        -0.418655
 O         2.149231         2.900438         0.405719
 H        -0.650291         0.560387         0.716820
 H        -0.336558         0.035408        -1.099136
 H        -0.233173        -1.082375         0.224903
 H         4.210400         0.623391         0.443545
 H         2.728637        -1.560964        -0.969813
 H         3.117218         0.129053        -2.974828
 H         1.315877         0.168523        -2.733414
 H         3.390144         2.242442        -1.923782
 H         1.690186         2.543570        -2.276383
 H         2.391485         2.650488         1.325091
