19
Iteration:  4840charge 0 multiplicity 1
 C         0.013538        -0.032200        -0.052967
 C         1.354912         0.410547         0.025480
 O         2.242493         0.207738         1.181922
 C         3.220026         0.567102         0.101372
 C         2.389688        -0.304579        -0.974350
 C         2.499617         0.368118        -2.301320
 C         2.272737         1.867456        -1.813122
 C         2.214177         1.701600        -0.334309
 O         2.173030         2.907665         0.439904
 H        -0.896040         0.448970         0.463102
 H        -0.221151         0.193616        -1.102442
 H        -0.048739        -1.161998         0.160244
 H         4.283705         0.360970         0.508729
 H         2.562594        -1.394776        -0.872781
 H         3.410940         0.354884        -2.942558
 H         1.784913         0.072602        -3.130740
 H         3.249991         2.473488        -2.002243
 H         1.497232         2.228704        -2.344633
 H         2.038322         2.792612         1.379428
