19
Iteration:  4344charge 0 multiplicity 1
 C        -0.022926         0.118104        -0.108850
 C         1.394104         0.443858        -0.119041
 O         2.378427         0.066725         1.228125
 C         3.215339         0.599947         0.125515
 C         2.477366        -0.319587        -0.950146
 C         2.472004         0.374251        -2.281203
 C         2.299112         1.795611        -1.817348
 C         2.184481         1.693229        -0.317826
 O         2.018819         2.938995         0.468283
 H        -0.599874         0.822230         0.375567
 H        -0.627734         0.016606        -1.045795
 H        -0.384736        -0.796459         0.432994
 H         4.314738         0.743423         0.187455
 H         2.701197        -1.365309        -0.948640
 H         3.478064         0.186977        -2.753748
 H         1.764927        -0.237797        -2.850713
 H         3.095774         2.363791        -2.226906
 H         1.326543         2.372949        -2.139908
 H         2.230144         2.485980         1.328107
