19
Iteration:   335
 C        -0.115454         0.271088         0.107112
 C         1.389865         0.319485        -0.063806
 O         2.357676         0.084279         1.200512
 C         3.116258         0.591099         0.147246
 C         2.544622        -0.316557        -0.984406
 C         2.648853         0.438283        -2.295626
 C         2.256686         1.864674        -1.816926
 C         2.185501         1.619128        -0.385611
 O         2.022413         2.774045         0.335150
 H        -0.491466         1.065399         0.761768
 H        -0.524561         0.387653        -0.853049
 H        -0.460772        -0.754456         0.377793
 H         4.207149         0.662118         0.381896
 H         2.848103        -1.290937        -0.975669
 H         3.644633         0.392209        -2.933112
 H         1.817723         0.084943        -2.798635
 H         3.011719         2.710800        -2.155235
 H         1.230072         1.996616        -2.287501
 H         2.207132         2.703123         1.284016
