19
Iteration:  1558
 C        -0.117867         0.332879         0.222824
 C         1.362003         0.204080        -0.108314
 O         2.305877         0.169973         1.141324
 C         3.240096         0.598013         0.011786
 C         2.505369        -0.355229        -0.959695
 C         2.683633         0.434504        -2.266378
 C         2.336614         1.884989        -1.880096
 C         2.172230         1.625406        -0.346117
 O         1.945435         2.751505         0.363427
 H        -0.029932         1.084830         1.023216
 H        -0.660309         0.578589        -0.794111
 H        -0.544389        -0.619323         0.734220
 H         4.230414         0.598132         0.270550
 H         2.803568        -1.446318        -0.956590
 H         3.740009         0.140182        -2.380776
 H         1.982357         0.016627        -3.055350
 H         3.142690         2.645963        -2.143199
 H         1.348859         2.144795        -2.286837
 H         1.664697         2.556971         1.286623
