19
Iteration:   831
 C        -0.023332         0.343734         0.005327
 C         1.458684         0.360022        -0.029954
 O         2.243027         0.115781         1.201202
 C         3.239489         0.508932         0.111340
 C         2.601006        -0.303551        -0.965818
 C         2.599312         0.477484        -2.275228
 C         2.189707         1.815879        -1.869765
 C         2.210461         1.664393        -0.324545
 O         1.954665         2.688902         0.400036
 H        -0.309912         1.114781         0.738837
 H        -0.337985         0.662770        -1.057410
 H        -0.406627        -0.661156         0.335270
 H         4.317065         0.487312         0.338175
 H         2.710915        -1.459656        -1.028348
 H         3.518766         0.325178        -2.759875
 H         1.859207        -0.011020        -2.960643
 H         2.717086         2.697369        -2.331181
 H         1.107172         2.063694        -2.164930
 H         2.242261         2.640012         1.326218
