19
Iteration:  3655
 C        -0.127001         0.134850         0.193860
 C         1.414481         0.361977        -0.008960
 O         2.235525         0.074859         1.121591
 C         3.245335         0.508635         0.086060
 C         2.445961        -0.292431        -1.009502
 C         2.723540         0.460598        -2.308419
 C         2.312690         1.894534        -1.888496
 C         2.226808         1.661396        -0.312185
 O         1.940557         2.840972         0.376318
 H        -0.455853         0.704834         1.100258
 H        -0.613297         0.495075        -0.685940
 H        -0.311495        -0.974063         0.213806
 H         4.291557         0.766298         0.324324
 H         2.338476        -1.395875        -0.978528
 H         3.768407         0.474914        -2.658913
 H         2.220211         0.022755        -3.226836
 H         3.159545         2.613546        -2.273518
 H         1.388852         2.277206        -2.202370
 H         2.373912         2.746799         1.260470
