19
Iteration:  3865charge 0 multiplicity 1
 C        -0.070929         0.411411        -0.051989
 C         1.509502         0.318160        -0.144919
 O         2.374808         0.001083         1.238780
 C         3.248549         0.541768         0.152624
 C         2.646912        -0.298134        -0.977055
 C         2.529923         0.380482        -2.265098
 C         2.173450         1.880916        -1.894035
 C         2.214495         1.720532        -0.384119
 O         1.889413         2.743947         0.520775
 H        -0.269078         0.969508         0.847182
 H        -0.696521         0.879783        -0.880445
 H        -0.511622        -0.634345        -0.023780
 H         4.325526         0.528970         0.485095
 H         2.613384        -1.368541        -0.985022
 H         3.512193         0.360766        -2.735036
 H         1.778612        -0.093831        -3.022825
 H         2.825491         2.762523        -2.344610
 H         1.189756         2.097952        -2.210403
 H         1.873293         2.251902         1.366197
