19
Iteration:   449
 C        -0.030791         0.158416         0.106961
 C         1.406058         0.445858        -0.016711
 O         2.293721         0.086025         1.116482
 C         3.239157         0.492271         0.092917
 C         2.457977        -0.304758        -0.990413
 C         2.542072         0.398532        -2.276694
 C         2.380548         1.804348        -1.817602
 C         2.248119         1.716931        -0.315959
 O         1.948363         2.888212         0.335808
 H        -0.594300         0.801545         0.809052
 H        -0.474084         0.246524        -0.960949
 H        -0.199173        -0.867863         0.416897
 H         4.299353         0.474979         0.367548
 H         2.571301        -1.473803        -0.674632
 H         3.463206         0.361568        -2.759518
 H         1.703919         0.152732        -3.042138
 H         3.149307         2.538108        -2.006969
 H         1.459092         2.231973        -2.149552
 H         1.718222         2.552679         1.237974
