19
Iteration:   369
 C        -0.043658         0.026970         0.024139
 C         1.418284         0.383035         0.023628
 O         2.266637         0.217655         1.170704
 C         3.172143         0.545669         0.077788
 C         2.423095        -0.330648        -0.949276
 C         2.500489         0.345387        -2.270564
 C         2.331782         1.909978        -1.943742
 C         2.297700         1.774220        -0.385687
 O         2.082561         2.849276         0.491286
 H        -0.838504         0.556281         0.610794
 H        -0.191741         0.171703        -0.981487
 H        -0.102916        -1.061983         0.234892
 H         4.216643         0.414597         0.418064
 H         2.501631        -1.385186        -0.888458
 H         3.424738         0.103078        -2.946852
 H         1.706300         0.040295        -2.889039
 H         3.176657         2.670204        -2.257488
 H         1.353542         2.302613        -2.307592
 H         1.857871         2.414524         1.373478
