19
Iteration:  4751charge 0 multiplicity 1
 C        -0.152536         0.247140         0.176907
 C         1.452231         0.378580        -0.059236
 O         2.291888         0.177585         1.135440
 C         3.249845         0.436777         0.044925
 C         2.536792        -0.344167        -1.019413
 C         2.681650         0.399887        -2.286611
 C         2.374611         1.882622        -1.878356
 C         2.229789         1.694995        -0.311091
 O         1.825864         2.762339         0.437697
 H        -0.334187         1.237591         0.671846
 H        -0.523427         0.295193        -0.881694
 H        -0.510019        -0.605393         0.697096
 H         4.345426         0.667151         0.124590
 H         2.378689        -1.465673        -0.992119
 H         3.584765         0.176299        -2.832674
 H         1.920851         0.083864        -2.998172
 H         3.216833         2.586704        -2.077017
 H         1.577333         2.267084        -2.400040
 H         1.874089         2.508113         1.382454
