19
Iteration:  2478charge 0 multiplicity 1
 C        -0.106282         0.295467         0.104310
 C         1.415184         0.357344        -0.044812
 O         2.290914         0.082020         1.154692
 C         3.303207         0.580061         0.055300
 C         2.504476        -0.343005        -0.961931
 C         2.613234         0.412446        -2.227373
 C         2.296956         1.904526        -1.838473
 C         2.158828         1.607968        -0.355033
 O         1.975159         2.761500         0.375800
 H        -0.557406         1.029093         0.887191
 H        -0.603335         0.456312        -0.858554
 H        -0.410675        -0.668541         0.388750
 H         4.390394         0.775340         0.208863
 H         2.806336        -1.430996        -1.067751
 H         3.637532         0.219797        -2.572063
 H         1.905433         0.122834        -3.060866
 H         3.291367         2.491066        -1.963524
 H         1.504119         2.332648        -2.540454
 H         1.437899         2.535944         1.176689
