19
Iteration:  2889charge 0 multiplicity 1
 C        -0.057134        -0.076415        -0.013232
 C         1.401103         0.282171        -0.016423
 O         2.132139         0.190786         1.226277
 C         3.275676         0.598769         0.152524
 C         2.430003        -0.358422        -0.898675
 C         2.542710         0.441345        -2.289925
 C         2.260552         1.953159        -1.835463
 C         2.217111         1.738721        -0.432107
 O         2.212745         2.922506         0.350135
 H        -0.685898         0.273143         0.810650
 H        -0.581005         0.169133        -0.945328
 H        -0.118209        -1.179654         0.200129
 H         4.331581         0.671510         0.427222
 H         2.403188        -1.494812        -0.947066
 H         3.532541         0.235426        -2.685854
 H         1.804343        -0.026982        -2.952547
 H         3.001715         2.784274        -2.242257
 H         1.312051         2.236083        -2.295081
 H         2.527653         2.719149         1.277499
