19
Iteration:  3609
 C        -0.045717        -0.100736         0.026021
 C         1.375551         0.356823         0.021859
 O         2.161644         0.199531         1.207996
 C         3.183227         0.587073         0.098517
 C         2.519344        -0.333855        -0.939170
 C         2.380238         0.525318        -2.327387
 C         2.449058         1.915958        -1.824175
 C         2.264093         1.720916        -0.358639
 O         2.151142         2.829850         0.358471
 H        -0.719829         0.550013         0.707242
 H        -0.492389        -0.149668        -1.002271
 H        -0.030559        -1.086711         0.364210
 H         4.171654         0.616236         0.458809
 H         2.873893        -1.381801        -0.979321
 H         3.232997         0.158707        -2.985374
 H         1.551030         0.453721        -3.059856
 H         3.395163         2.463425        -2.006504
 H         1.594473         2.371153        -2.316307
 H         1.796426         2.625882         1.263227
