19
Iteration:  4349
 C        -0.052689         0.140728        -0.056230
 C         1.398574         0.410927        -0.100138
 O         2.363587         0.064337         1.181173
 C         3.200217         0.578394         0.126169
 C         2.510213        -0.323514        -0.944964
 C         2.495523         0.355088        -2.265926
 C         2.268291         1.818523        -1.826866
 C         2.210980         1.747138        -0.326269
 O         2.007778         2.887957         0.450355
 H        -0.653149         1.035020         0.398298
 H        -0.372935         0.057345        -1.157670
 H        -0.303132        -0.771493         0.456468
 H         4.280287         0.775315         0.231935
 H         2.700795        -1.435346        -0.847319
 H         3.476212         0.421304        -2.716223
 H         1.702801        -0.124054        -2.877554
 H         3.167306         2.451175        -2.169906
 H         1.344408         2.161720        -2.175939
 H         2.228685         2.608827         1.356364
