19
Iteration:   199charge 0 multiplicity 1
 C        -0.031435         0.023024        -0.073097
 C         1.396788         0.365529         0.000589
 O         2.274220         0.191541         1.166674
 C         3.280530         0.531506         0.120503
 C         2.398923        -0.331352        -0.896602
 C         2.445594         0.460276        -2.258029
 C         2.331122         1.897527        -1.781552
 C         2.181011         1.636170        -0.300183
 O         2.130338         2.901980         0.282428
 H        -0.658108         0.561742         0.575041
 H        -0.443644         0.008417        -1.100747
 H        -0.076708        -0.986796         0.273700
 H         4.286599         0.637109         0.517695
 H         2.505499        -1.482218        -0.857330
 H         3.371615         0.300218        -2.680831
 H         1.663778         0.097741        -3.030807
 H         3.228940         2.408402        -1.719734
 H         1.468977         2.437703        -2.268013
 H         2.037966         2.678844         1.232225
