19
Iteration:   264charge 0 multiplicity 1
 C        -0.079540         0.136453         0.068310
 C         1.402779         0.294184        -0.018919
 O         2.278797         0.231917         1.239461
 C         3.114139         0.533553         0.052182
 C         2.534047        -0.298933        -0.956302
 C         2.547972         0.418078        -2.311975
 C         2.373979         1.870131        -1.896962
 C         2.140781         1.654040        -0.394587
 O         2.045485         2.803076         0.436799
 H        -0.401877         0.904550         0.789395
 H        -0.480572         0.277664        -0.979625
 H        -0.294526        -0.879427         0.399742
 H         4.196824         0.589840         0.114380
 H         3.015413        -1.363639        -0.997668
 H         3.439487         0.217197        -2.768601
 H         1.701467         0.062219        -3.021778
 H         3.337839         2.332053        -1.917719
 H         1.644725         2.535735        -2.440653
 H         2.123540         2.618175         1.373927
