19
Iteration:  4526
 C        -0.055359         0.126271        -0.028628
 C         1.383920         0.288400        -0.050895
 O         2.295378         0.226923         1.235850
 C         3.223699         0.522524         0.171179
 C         2.477360        -0.282397        -0.923934
 C         2.541485         0.455331        -2.299644
 C         2.287967         1.870956        -1.913373
 C         2.233752         1.653785        -0.387488
 O         2.029438         2.790418         0.425230
 H        -0.352837         0.864969         0.788270
 H        -0.432695         0.325095        -1.003642
 H        -0.192752        -0.965272         0.301201
 H         4.240732         0.826032         0.335383
 H         2.522542        -1.345428        -0.870977
 H         3.553676         0.121924        -2.705524
 H         1.789357         0.127932        -3.040589
 H         3.071761         2.629791        -2.216271
 H         1.393047         2.298007        -2.426791
 H         1.981940         2.365465         1.327790
