19
Iteration:  2965charge 0 multiplicity 1
 C        -0.022793         0.273999         0.068829
 C         1.425475         0.338744        -0.038568
 O         2.274815         0.215169         1.192221
 C         3.299634         0.578408         0.130525
 C         2.590495        -0.349611        -0.948014
 C         2.490707         0.407721        -2.372508
 C         2.386958         1.882401        -1.857450
 C         2.185394         1.561207        -0.383385
 O         1.856609         2.710178         0.393846
 H        -0.426074         1.109846         0.713992
 H        -0.596087         0.425642        -0.871163
 H        -0.454063        -0.624177         0.654323
 H         4.312821         0.741113         0.489867
 H         2.872916        -1.440235        -0.779696
 H         3.401638         0.224551        -2.961075
 H         1.544912         0.104150        -2.958220
 H         3.352381         2.526755        -2.041232
 H         1.553564         2.422341        -2.289579
 H         1.948083         2.527656         1.338496
