19
Iteration:  4697charge 0 multiplicity 1
 C        -0.146307         0.099868         0.029042
 C         1.431488         0.370397        -0.001105
 O         2.207923         0.118210         1.164581
 C         3.218596         0.511530         0.076998
 C         2.548439        -0.318921        -0.970422
 C         2.571831         0.381666        -2.344498
 C         2.311242         1.834615        -1.828104
 C         2.254992         1.754299        -0.299024
 O         2.064804         2.917477         0.402584
 H        -0.634973         0.519418         0.977578
 H        -0.549258         0.526262        -0.918993
 H        -0.136959        -0.957915         0.085494
 H         4.312819         0.487688         0.257608
 H         2.662024        -1.406857        -0.702768
 H         3.576033         0.224369        -2.724451
 H         1.879103         0.031650        -3.101241
 H         3.000095         2.665244        -2.233184
 H         1.342563         2.091914        -2.128858
 H         1.788852         2.792414         1.328381
