19
Iteration:  1586charge 0 multiplicity 1
 C        -0.047902         0.303407         0.137283
 C         1.450327         0.431677        -0.043969
 O         2.234107         0.115028         1.172020
 C         3.277072         0.540544         0.131074
 C         2.589563        -0.302688        -0.966374
 C         2.550104         0.375416        -2.399080
 C         2.324477         1.779596        -1.948560
 C         2.209216         1.673021        -0.322645
 O         1.877176         2.784629         0.436838
 H        -0.347413         0.941643         0.956351
 H        -0.511682         0.518431        -0.794851
 H        -0.201408        -0.694557         0.343112
 H         4.352623         0.498108         0.629306
 H         2.667934        -1.349236        -0.876945
 H         3.509208         0.113865        -2.876206
 H         1.764265        -0.072297        -2.943571
 H         3.106872         2.441333        -2.282379
 H         1.450187         2.264660        -2.440237
 H         2.075115         2.475320         1.358781
