19
Iteration:  1986charge 0 multiplicity 1
 C        -0.046169        -0.021275         0.007926
 C         1.404726         0.334625        -0.017562
 O         2.250530         0.102102         1.198933
 C         3.143164         0.546272         0.133638
 C         2.430207        -0.326966        -0.942016
 C         2.501191         0.467702        -2.391414
 C         2.311113         1.930599        -1.812259
 C         2.169317         1.721679        -0.335975
 O         2.237288         2.907447         0.397933
 H        -0.553557         0.642526         0.733013
 H        -0.491794         0.090623        -0.923211
 H        -0.110515        -1.071465         0.316168
 H         4.157929         0.725643         0.505163
 H         2.420206        -1.414415        -1.075179
 H         3.453700         0.369930        -2.793893
 H         1.753304         0.017922        -3.084574
 H         3.252121         2.492457        -2.009545
 H         1.532313         2.535627        -2.256508
 H         1.709957         2.771637         1.201558
