19
Iteration:    90
 C        -0.088876         0.106904         0.038708
 C         1.418694         0.340751        -0.068956
 O         2.264651         0.065763         1.114864
 C         3.269011         0.687833         0.150480
 C         2.445056        -0.304181        -0.929814
 C         2.503176         0.339293        -2.286573
 C         2.409818         1.857300        -1.825048
 C         2.294624         1.712388        -0.313528
 O         1.976261         2.873010         0.375009
 H        -0.454911         0.871371         0.630953
 H        -0.475978         0.273025        -0.967321
 H        -0.307659        -0.864451         0.452329
 H         4.312655         0.868902         0.410662
 H         2.620370        -1.418137        -0.798457
 H         3.401158         0.122700        -2.770637
 H         1.631180         0.069028        -2.967568
 H         3.093420         2.533986        -2.219437
 H         1.344204         2.130726        -2.242750
 H         1.851351         2.652318         1.318689
