19
Iteration:  3202
 C        -0.095251         0.139769         0.121224
 C         1.384945         0.335114         0.014064
 O         2.205423         0.123735         1.179425
 C         3.198346         0.609070         0.057226
 C         2.545869        -0.321011        -0.959733
 C         2.647709         0.385483        -2.337214
 C         2.243413         1.833375        -1.931964
 C         2.222460         1.683362        -0.370375
 O         2.101805         2.872996         0.439419
 H        -0.589708         0.943521         0.595335
 H        -0.486322        -0.152212        -0.856210
 H        -0.022895        -0.835293         0.736171
 H         4.251972         0.745202         0.333840
 H         2.703325        -1.425914        -0.841015
 H         3.638736         0.556707        -2.743388
 H         1.927788        -0.016652        -3.073214
 H         2.989329         2.603145        -2.203309
 H         1.196458         2.255818        -2.309968
 H         1.593871         2.540381         1.211074
