19
Iteration:  2585
 C        -0.056836         0.107180        -0.021387
 C         1.404717         0.442560        -0.018114
 O         2.241522         0.089681         1.168436
 C         3.227225         0.515679         0.134536
 C         2.450914        -0.332952        -0.963591
 C         2.585270         0.429142        -2.224338
 C         2.225437         1.847944        -1.893151
 C         2.213268         1.718291        -0.364232
 O         2.168131         2.870088         0.457062
 H        -0.641765         0.775283         0.643792
 H        -0.360476        -0.004771        -1.066787
 H         0.175717        -0.875662         0.441358
 H         4.346838         0.548518         0.354262
 H         2.340434        -1.427228        -1.042998
 H         3.614405         0.358328        -2.748847
 H         1.873319         0.064668        -2.908982
 H         2.894048         2.563483        -2.245862
 H         1.208088         2.114967        -2.234295
 H         1.287887         2.936908         0.878850
