19
Iteration:  1220charge 0 multiplicity 1
 C        -0.039276         0.327361         0.210337
 C         1.452986         0.349719        -0.085761
 O         2.284012         0.067304         1.154745
 C         3.254630         0.560058         0.046997
 C         2.500117        -0.312047        -0.935368
 C         2.673832         0.368227        -2.299087
 C         2.251813         1.884742        -1.970084
 C         2.189913         1.653649        -0.361588
 O         1.897030         2.762091         0.410080
 H        -0.219307         1.133185         0.863682
 H        -0.725350         0.487116        -0.706608
 H        -0.421134        -0.596508         0.622243
 H         4.335620         0.760016         0.414330
 H         2.599761        -1.404318        -0.711485
 H         3.701789         0.218320        -2.459822
 H         2.173595         0.002974        -3.234543
 H         2.971856         2.754562        -2.148178
 H         1.285503         2.112572        -2.406072
 H         1.876365         2.418397         1.327635
