19
Iteration:   788charge 0 multiplicity 1
 C        -0.082263         0.016440         0.073385
 C         1.350910         0.406888        -0.013219
 O         2.281813         0.008700         1.191123
 C         3.130898         0.577373         0.092927
 C         2.444876        -0.209635        -0.967651
 C         2.564434         0.444732        -2.262906
 C         2.440228         1.877407        -1.860992
 C         2.198372         1.673637        -0.373855
 O         2.026724         2.895027         0.401176
 H        -0.693529         0.538693         0.812645
 H        -0.523193         0.158338        -0.967014
 H        -0.123733        -1.086558         0.306799
 H         4.190931         0.727514         0.258639
 H         2.631881        -1.353516        -0.866212
 H         3.357291         0.213970        -2.909976
 H         1.618643         0.101063        -2.846272
 H         3.347694         2.513042        -2.021397
 H         1.701193         2.419309        -2.496329
 H         2.866630         3.009179         0.874179
