19
Iteration:    41
 C        -0.008777        -0.134509        -0.068354
 C         1.372546         0.364269        -0.004768
 O         2.218390         0.264495         1.155525
 C         3.171018         0.680816         0.080798
 C         2.386978        -0.282163        -0.901408
 C         2.433534         0.350353        -2.249401
 C         2.340778         1.870656        -1.784270
 C         2.252583         1.735498        -0.356101
 O         2.180068         2.862644         0.385475
 H        -0.740040         0.430245         0.656957
 H        -0.384340         0.004602        -1.112659
 H         0.093985        -1.225328         0.184413
 H         4.266508         0.784979         0.298940
 H         2.436918        -1.352566        -0.819640
 H         3.475034         0.214712        -2.750128
 H         1.696099        -0.027828        -2.917367
 H         3.422536         2.279683        -2.009105
 H         1.617070         2.469871        -2.230980
 H         2.239940         2.522488         1.315660
