19
Iteration:  1823
 C         0.003976        -0.100849        -0.034241
 C         1.388740         0.361251        -0.024801
 O         2.160368         0.196146         1.132917
 C         3.212323         0.545441         0.158451
 C         2.442848        -0.265970        -0.916918
 C         2.447916         0.463148        -2.276659
 C         2.271799         1.935883        -1.818283
 C         2.264859         1.750007        -0.355840
 O         2.211709         2.821315         0.380984
 H        -0.645436         0.593166         0.637683
 H        -0.572737        -0.157136        -0.933270
 H        -0.133395        -1.115324         0.348765
 H         4.183920         0.496324         0.511591
 H         2.542129        -1.335537        -0.832303
 H         3.404022         0.190965        -2.674700
 H         1.683915         0.254037        -3.130142
 H         3.208927         2.587816        -2.135446
 H         1.407232         2.466246        -2.228489
 H         2.465289         2.622087         1.301270
