19
Iteration:  4567charge 0 multiplicity 1
 C        -0.075864         0.270841         0.214593
 C         1.417762         0.358306        -0.102005
 O         2.286771        -0.001199         1.160669
 C         3.219908         0.576120         0.112453
 C         2.518363        -0.311417        -0.983725
 C         2.670312         0.445716        -2.276230
 C         2.355107         1.863691        -1.926191
 C         2.121088         1.694506        -0.418574
 O         1.924161         2.788191         0.396478
 H        -0.393996         1.233783         0.687629
 H        -0.734415         0.164581        -0.600115
 H        -0.390881        -0.498474         0.858188
 H         4.258846         0.573603         0.458559
 H         2.802716        -1.384016        -1.006955
 H         3.670333         0.302383        -2.590526
 H         2.111519         0.016928        -3.099593
 H         3.155653         2.678027        -2.157546
 H         1.451434         2.110330        -2.378616
 H         1.856309         2.575133         1.334791
