19
Iteration:  1266
 C        -0.001164        -0.037068         0.049401
 C         1.397212         0.291588        -0.015300
 O         2.244432         0.176554         1.203391
 C         3.180828         0.622690         0.138276
 C         2.418509        -0.352208        -0.899227
 C         2.446824         0.440600        -2.251837
 C         2.374435         1.995999        -1.837897
 C         2.220396         1.680607        -0.422832
 O         2.142368         2.874231         0.293985
 H        -0.542981         0.673458         0.734006
 H        -0.422050         0.112282        -0.936797
 H        -0.239705        -1.145796         0.324806
 H         4.313737         0.714842         0.461394
 H         2.434500        -1.407018        -0.824437
 H         3.241353         0.201804        -2.939206
 H         1.617650         0.083694        -2.794843
 H         3.295464         2.481807        -2.095614
 H         1.533983         2.462486        -2.310216
 H         2.023674         2.452635         1.164089
