19
Iteration:  1149charge 0 multiplicity 1
 C        -0.044644         0.065620        -0.045388
 C         1.452089         0.331889        -0.022315
 O         2.230705         0.147555         1.150691
 C         3.268332         0.633416         0.143207
 C         2.475152        -0.356747        -0.888899
 C         2.463599         0.323325        -2.337776
 C         2.321440         1.873593        -1.851681
 C         2.172218         1.742944        -0.337898
 O         2.103387         2.906210         0.441138
 H        -0.527288         0.768800         0.688675
 H        -0.482242         0.133218        -0.975470
 H        -0.174925        -1.000657         0.305313
 H         4.285853         0.786456         0.367517
 H         2.727450        -1.381786        -0.890889
 H         3.290990         0.220481        -3.185946
 H         1.478686        -0.017613        -2.775563
 H         3.168469         2.516532        -2.084724
 H         1.349655         2.315437        -2.310164
 H         2.127822         2.577678         1.352659
