19
Iteration:   960
 C        -0.029194        -0.067744         0.040208
 C         1.396502         0.394857         0.005125
 O         2.224523         0.168448         1.126556
 C         3.250663         0.504045         0.092545
 C         2.376782        -0.269198        -0.897798
 C         2.447302         0.373880        -2.342391
 C         2.392046         1.927418        -1.848292
 C         2.291616         1.754315        -0.344031
 O         2.082708         2.910548         0.415491
 H        -0.714407         0.458451         0.631969
 H        -0.468824         0.036260        -1.014169
 H        -0.101421        -1.133444         0.194745
 H         4.320708         0.546461         0.508370
 H         2.292798        -1.407042        -0.815887
 H         3.593005         0.234458        -2.845747
 H         1.722875        -0.014897        -3.044885
 H         3.302848         2.516521        -1.984157
 H         1.524869         2.552263        -2.253624
 H         1.989511         2.686920         1.355495
