19
Iteration:  1550charge 0 multiplicity 1
 C        -0.166657         0.264642         0.229825
 C         1.329316         0.308731        -0.039127
 O         2.329804         0.188367         1.148446
 C         3.262446         0.526426         0.016726
 C         2.524298        -0.343804        -0.984218
 C         2.715978         0.445154        -2.291568
 C         2.337054         1.795082        -1.875295
 C         2.174471         1.615976        -0.380790
 O         1.928928         2.790013         0.377378
 H        -0.418511         1.191193         0.878617
 H        -0.732006         0.563573        -0.620470
 H        -0.685438        -0.647773         0.688716
 H         4.364501         0.457607         0.339915
 H         2.831620        -1.432600        -1.096976
 H         3.747656         0.397852        -2.672638
 H         2.167368         0.187767        -3.282386
 H         3.123847         2.569875        -2.041351
 H         1.347943         2.181787        -2.206969
 H         1.874848         2.667705         1.358403
