19
Iteration:  3174
 C        -0.072070         0.284213         0.197958
 C         1.393260         0.335821        -0.094637
 O         2.338481         0.107484         1.201879
 C         3.235285         0.538079         0.081911
 C         2.492081        -0.359840        -0.967778
 C         2.653151         0.470327        -2.293008
 C         2.344949         1.834417        -1.876644
 C         2.211811         1.618082        -0.381013
 O         1.817547         2.779711         0.318803
 H        -0.304606         1.261164         0.822749
 H        -0.699823         0.058027        -0.719765
 H        -0.169050        -0.510128         0.867121
 H         4.306994         0.728574         0.226444
 H         2.657351        -1.454893        -0.920858
 H         3.693940         0.625832        -2.610774
 H         1.931407         0.204937        -3.123138
 H         3.192414         2.571217        -1.941129
 H         1.527800         2.290125        -2.278605
 H         2.143788         2.512007         1.208880
