19
Iteration:  2339charge 0 multiplicity 1
 C        -0.087761         0.067697         0.076212
 C         1.442901         0.297646        -0.006050
 O         2.229929         0.127177         1.168346
 C         3.275060         0.530737         0.159647
 C         2.486184        -0.285824        -0.965991
 C         2.454928         0.465447        -2.365775
 C         2.482486         1.931725        -1.804653
 C         2.181006         1.681536        -0.382878
 O         2.016006         2.854899         0.341155
 H        -0.384371         0.738177         0.919812
 H        -0.493498         0.155834        -0.981663
 H        -0.275086        -0.985629         0.431789
 H         4.292352         0.551648         0.564779
 H         2.529690        -1.461869        -0.866539
 H         3.181122         0.114719        -3.053641
 H         1.388096         0.362566        -2.821325
 H         3.438456         2.492695        -1.976638
 H         1.709013         2.450383        -2.292587
 H         1.749293         2.745168         1.263412
