19
Iteration:  3755
 C        -0.059041        -0.076960        -0.023149
 C         1.385964         0.380576         0.006400
 O         2.199992         0.127905         1.198404
 C         3.203975         0.552579         0.087413
 C         2.464203        -0.275938        -0.902715
 C         2.438710         0.551136        -2.334656
 C         2.400821         1.922670        -1.844488
 C         2.343055         1.696600        -0.341639
 O         2.110231         2.840265         0.388898
 H        -0.724678         0.582293         0.467236
 H        -0.277341        -0.054346        -1.091142
 H        -0.196267        -1.157855         0.415693
 H         4.285920         0.702732         0.255659
 H         2.416007        -1.352077        -0.793729
 H         3.244010         0.284491        -2.986084
 H         1.425288         0.238593        -2.777390
 H         3.362711         2.509980        -1.899300
 H         1.543487         2.391789        -2.116749
 H         1.716045         2.503631         1.233071
