19
Iteration:   999
 C        -0.084627         0.300910         0.018139
 C         1.442744         0.324089        -0.058459
 O         2.281438         0.154377         1.128184
 C         3.247257         0.632805         0.125752
 C         2.615334        -0.348411        -0.950084
 C         2.574138         0.365273        -2.359442
 C         2.214412         1.833018        -1.832504
 C         2.150725         1.607455        -0.351475
 O         2.002208         2.754217         0.484980
 H        -0.196548         1.197155         0.725846
 H        -0.419849         0.609027        -1.002651
 H        -0.533944        -0.625346         0.435066
 H         4.296869         0.889815         0.397375
 H         2.768302        -1.412263        -0.775517
 H         3.535642         0.252987        -2.740928
 H         1.856096        -0.058836        -3.142354
 H         2.972833         2.612576        -2.134459
 H         1.279957         2.271441        -2.155258
 H         1.868645         2.281651         1.347852
