19
Iteration:  3223charge 0 multiplicity 1
 C        -0.028455        -0.026813        -0.044003
 C         1.402501         0.418327        -0.089256
 O         2.254027         0.197981         1.171765
 C         3.182227         0.588551         0.181952
 C         2.463306        -0.240087        -0.906601
 C         2.524727         0.335713        -2.309990
 C         2.232349         1.855045        -1.884262
 C         2.220815         1.765293        -0.328321
 O         2.183091         2.856753         0.416836
 H        -0.592594         0.600144         0.587486
 H        -0.489892        -0.157439        -1.004777
 H        -0.038680        -1.108305         0.389802
 H         4.245753         0.615282         0.484627
 H         2.393188        -1.341437        -0.845696
 H         3.545653         0.144440        -2.666686
 H         1.728513        -0.129753        -2.848445
 H         2.835211         2.626604        -2.321976
 H         1.125570         2.141430        -2.109209
 H         2.175711         2.535207         1.350961
