19
Iteration:   776charge 0 multiplicity 1
 C        -0.112402        -0.055770         0.097411
 C         1.376579         0.343700         0.059462
 O         2.214243         0.106153         1.178838
 C         3.190356         0.597710         0.114983
 C         2.464064        -0.364591        -0.919408
 C         2.476810         0.461498        -2.383444
 C         2.509098         2.032512        -1.830486
 C         2.173854         1.722035        -0.375546
 O         2.066066         2.834181         0.318144
 H        -0.734508         0.452832         0.820044
 H        -0.553729         0.112484        -0.998780
 H        -0.080857        -1.148329         0.286362
 H         4.262306         0.760483         0.389431
 H         2.581019        -1.533082        -0.755412
 H         3.370716         0.179284        -2.872299
 H         1.563884         0.321081        -3.046100
 H         3.569623         2.421354        -1.838872
 H         1.681421         2.745426        -2.177140
 H         2.793746         2.941224         0.953729
