19
Iteration:  2650
 C        -0.033670         0.331401         0.101340
 C         1.474920         0.289848        -0.032846
 O         2.331622         0.106674         1.141524
 C         3.185899         0.544773         0.083879
 C         2.483526        -0.374595        -0.989723
 C         2.600565         0.340759        -2.316079
 C         2.391050         1.882157        -1.883810
 C         2.238524         1.707841        -0.371638
 O         1.770660         2.831018         0.486333
 H        -0.465213         0.994047         0.864503
 H        -0.669655         0.480188        -0.781322
 H        -0.394694        -0.748148         0.283335
 H         4.303735         0.320111         0.317381
 H         2.767561        -1.425951        -1.161887
 H         3.637967         0.059389        -2.832574
 H         1.778227         0.032154        -2.899844
 H         3.225772         2.445610        -2.016972
 H         1.583069         2.489496        -2.248331
 H         2.385305         2.825479         1.207057
