19
Iteration:  2725
 C        -0.045693        -0.070251        -0.031508
 C         1.375790         0.462309        -0.058251
 O         2.232174         0.148268         1.197930
 C         3.122462         0.594967         0.141883
 C         2.462330        -0.285946        -0.928745
 C         2.459221         0.392705        -2.227239
 C         2.282096         1.888605        -1.874572
 C         2.221881         1.749175        -0.349599
 O         2.208151         2.854303         0.387374
 H        -0.695270         0.351460         0.677328
 H        -0.516602         0.028148        -1.017045
 H         0.151548        -1.176977         0.263510
 H         4.198614         0.616317         0.436911
 H         2.689459        -1.346844        -0.953214
 H         3.494820         0.432204        -2.696206
 H         1.718277         0.056278        -2.969914
 H         3.302289         2.423367        -2.180805
 H         1.482764         2.385601        -2.422764
 H         2.474176         2.561193         1.305626
