19
Iteration:   955
 C        -0.017609        -0.098020         0.026885
 C         1.391342         0.415643        -0.028669
 O         2.229214         0.134580         1.143485
 C         3.229347         0.545489         0.092438
 C         2.327743        -0.242468        -0.938165
 C         2.498238         0.325275        -2.325472
 C         2.404827         1.906402        -1.835000
 C         2.250465         1.773369        -0.311199
 O         2.121128         2.932183         0.418368
 H        -0.701610         0.481373         0.745167
 H        -0.407561        -0.039228        -0.981072
 H         0.055833        -1.199483         0.235589
 H         4.291070         0.515422         0.345066
 H         2.269639        -1.285289        -0.747498
 H         3.366404         0.226931        -2.913229
 H         1.616023         0.139073        -3.015400
 H         3.324939         2.494937        -2.016590
 H         1.641653         2.483619        -2.285864
 H         1.814143         2.756048         1.344048
