19
Iteration:  3264charge 0 multiplicity 1
 C        -0.015589        -0.006916        -0.132791
 C         1.398610         0.333953        -0.009787
 O         2.311738         0.202341         1.246534
 C         3.189375         0.657634         0.205598
 C         2.480553        -0.267700        -0.917581
 C         2.373394         0.369355        -2.293296
 C         2.322648         1.857736        -1.832568
 C         2.213740         1.614806        -0.366450
 O         2.138488         2.905138         0.338617
 H        -0.644409         0.324639         0.720485
 H        -0.401185         0.325400        -1.072802
 H        -0.211247        -1.103395        -0.055519
 H         4.273236         0.782164         0.456614
 H         2.671468        -1.298937        -0.760628
 H         3.160166         0.176900        -3.066631
 H         1.364885         0.109199        -2.666041
 H         3.270959         2.298529        -1.914959
 H         1.554198         2.428170        -2.263670
 H         2.096238         2.680688         1.293562
