19
Iteration:  1644
 C        -0.069421        -0.080059        -0.067365
 C         1.347081         0.402293         0.015421
 O         2.222251         0.191363         1.251962
 C         3.194208         0.580133         0.072280
 C         2.526931        -0.312615        -0.949041
 C         2.425550         0.385249        -2.365645
 C         2.278760         1.890313        -1.843310
 C         2.280213         1.742761        -0.297230
 O         2.253401         2.935013         0.428175
 H        -0.827235         0.436377         0.442002
 H        -0.420763         0.064873        -1.157673
 H        -0.216505        -1.151435         0.170718
 H         4.216140         0.633558         0.433283
 H         2.602367        -1.412968        -0.690770
 H         3.274874         0.074063        -3.040053
 H         1.514808        -0.040442        -2.791894
 H         3.200672         2.422125        -2.189514
 H         1.274708         2.200494        -2.225701
 H         1.866292         2.610417         1.261062
