19
Iteration:  1984charge 0 multiplicity 1
 C        -0.023144        -0.015491        -0.005414
 C         1.403225         0.349361        -0.011156
 O         2.266138         0.109988         1.197261
 C         3.145065         0.547975         0.148545
 C         2.406223        -0.331948        -0.965830
 C         2.499294         0.454450        -2.375167
 C         2.312851         1.944995        -1.812629
 C         2.168124         1.701456        -0.330983
 O         2.232485         2.897677         0.385570
 H        -0.593858         0.608360         0.719373
 H        -0.568855         0.150686        -0.958878
 H        -0.201879        -1.095491         0.372149
 H         4.210071         0.709744         0.570691
 H         2.440231        -1.399093        -1.037944
 H         3.516835         0.394366        -2.803774
 H         1.784255         0.020785        -3.077320
 H         3.174297         2.540598        -1.988280
 H         1.491141         2.559590        -2.233367
 H         1.722657         2.722741         1.213181
