19
Iteration:  1433
 C        -0.091738         0.081191         0.033958
 C         1.427910         0.401271        -0.005019
 O         2.329394         0.171792         1.220502
 C         3.231959         0.547696         0.164725
 C         2.454785        -0.282584        -0.980100
 C         2.483157         0.371305        -2.276322
 C         2.338463         1.858117        -1.925794
 C         2.254277         1.688009        -0.409731
 O         2.024627         2.850971         0.406936
 H        -0.560210         0.808414         0.760171
 H        -0.522310         0.286022        -0.970179
 H        -0.261871        -0.927644         0.378355
 H         4.371593         0.535568         0.343595
 H         2.661521        -1.373014        -0.873496
 H         3.281505         0.277406        -3.023123
 H         1.682138        -0.117945        -2.779752
 H         3.226911         2.371370        -2.206259
 H         1.427204         2.394654        -2.323178
 H         1.733366         2.548516         1.305616
