19
Iteration:    22
 C        -0.196776        -0.118599        -0.038049
 C         1.353640         0.424976        -0.062892
 O         2.355932         0.196361         1.312978
 C         3.194514         0.542881         0.112955
 C         2.465980        -0.285377        -0.896843
 C         2.525289         0.366898        -2.313779
 C         2.388927         1.887250        -2.055610
 C         2.204187         1.775112        -0.366712
 O         2.108771         2.931418         0.496092
 H        -0.802306         0.482868         0.654916
 H        -0.475154         0.022394        -0.971907
 H        -0.108098        -1.160906         0.232336
 H         4.254844         0.622283         0.365320
 H         2.556859        -1.347771        -0.764065
 H         3.368483        -0.041505        -2.886680
 H         1.647764         0.085521        -2.872294
 H         3.211689         2.594028        -2.283241
 H         1.486069         2.281767        -2.453092
 H         2.085734         2.454063         1.360424
