19
Iteration:   546
 C        -0.124135         0.072078        -0.059312
 C         1.367283         0.371280        -0.018780
 O         2.261455         0.168072         1.254071
 C         3.280631         0.535253         0.076849
 C         2.558432        -0.356049        -0.869537
 C         2.465587         0.444819        -2.357393
 C         2.300977         1.968668        -1.773676
 C         2.274915         1.647770        -0.325202
 O         2.087029         2.820836         0.299597
 H        -0.628396         0.704735         0.657894
 H        -0.599735         0.113190        -1.078832
 H        -0.220856        -0.883674         0.339581
 H         4.348957         0.634491         0.328747
 H         2.645800        -1.544829        -0.700049
 H         3.336291         0.313027        -3.005699
 H         1.457694         0.212532        -2.844348
 H         3.132788         2.671987        -2.021632
 H         1.306583         2.409634        -1.957062
 H         2.052186         2.485462         1.215310
