19
Iteration:  1535charge 0 multiplicity 1
 C        -0.139184         0.252651         0.209411
 C         1.409000         0.444765         0.028663
 O         2.301692         0.114692         1.199181
 C         3.180017         0.467070         0.093464
 C         2.529471        -0.360575        -1.032145
 C         2.731864         0.398394        -2.393751
 C         2.274619         1.891890        -1.881353
 C         2.185833         1.681214        -0.373471
 O         1.948869         2.812981         0.356518
 H        -0.571016         0.899525         0.953102
 H        -0.520685         0.164183        -0.925901
 H        -0.174859        -0.800991         0.595801
 H         4.170320         0.621765         0.295251
 H         2.377991        -1.419984        -0.848162
 H         3.829312         0.339995        -2.609831
 H         2.082514        -0.110990        -3.095017
 H         3.092920         2.632392        -2.079759
 H         1.344920         2.176814        -2.384686
 H         2.183108         2.494468         1.264582
