19
Iteration:  1693charge 0 multiplicity 1
 C        -0.121141         0.080057         0.127779
 C         1.301900         0.396101         0.028965
 O         2.281093         0.157363         1.192132
 C         3.191257         0.571995         0.105772
 C         2.512788        -0.409766        -1.008874
 C         2.629994         0.473959        -2.393657
 C         2.347234         1.870067        -1.872459
 C         2.144902         1.662321        -0.353539
 O         2.106143         2.879712         0.384481
 H        -0.782760         0.797288         0.811893
 H        -0.580797         0.062759        -0.837187
 H        -0.175246        -0.957858         0.554343
 H         4.247308         0.636775         0.387144
 H         2.727140        -1.440005        -1.138093
 H         3.601751         0.233268        -2.766818
 H         1.869637         0.156625        -3.148552
 H         3.221005         2.458727        -1.981665
 H         1.459227         2.402542        -2.130100
 H         2.020160         2.467600         1.283012
