19
Iteration:  4044charge 0 multiplicity 1
 C        -0.003783         0.349340        -0.016978
 C         1.477103         0.301737        -0.095230
 O         2.299093         0.091502         1.164621
 C         3.224952         0.618055         0.107952
 C         2.539372        -0.346750        -0.975104
 C         2.562707         0.430588        -2.329584
 C         2.198812         1.828805        -1.841348
 C         2.248294         1.669574        -0.302020
 O         1.939244         2.718994         0.497551
 H        -0.358078         1.039102         0.837800
 H        -0.404800         0.824118        -0.934022
 H        -0.522222        -0.561755         0.202415
 H         4.229850         0.783334         0.540461
 H         2.716577        -1.467755        -1.003605
 H         3.554376         0.330939        -2.851229
 H         1.882739        -0.035940        -3.022986
 H         2.866326         2.588998        -2.111382
 H         1.266915         2.106858        -2.345312
 H         1.873190         2.344356         1.392084
