19
Iteration:  1276
 C        -0.041144        -0.079545         0.004989
 C         1.390992         0.326703         0.023045
 O         2.287735         0.210504         1.220347
 C         3.117222         0.581593         0.122596
 C         2.429575        -0.271207        -0.920830
 C         2.373342         0.469101        -2.207390
 C         2.395863         1.888195        -1.908946
 C         2.306234         1.720122        -0.382599
 O         2.168938         2.838006         0.303058
 H        -0.797059         0.403099         0.582770
 H        -0.291700         0.022841        -1.058092
 H        -0.086980        -1.185666         0.203855
 H         4.223763         0.651584         0.501871
 H         2.707586        -1.290230        -0.859283
 H         3.132494         0.122889        -2.831627
 H         1.433995         0.342537        -2.751448
 H         3.281474         2.513729        -2.020385
 H         1.547547         2.442197        -2.213336
 H         1.769402         2.729675         1.169835
