19
Iteration:  2810
 C        -0.065721         0.347931         0.083024
 C         1.428403         0.360808        -0.082119
 O         2.391724         0.115587         1.203745
 C         3.276199         0.513078         0.150659
 C         2.529963        -0.392402        -0.979970
 C         2.558246         0.432878        -2.374269
 C         2.365844         1.877158        -1.837053
 C         2.252838         1.616479        -0.362213
 O         1.759664         2.751486         0.417924
 H        -0.164411         1.274290         0.569350
 H        -0.674200         0.313130        -0.825429
 H        -0.434844        -0.607341         0.656239
 H         4.214176         0.966829         0.326627
 H         2.517605        -1.455135        -0.996121
 H         3.379239         0.150475        -2.995662
 H         1.665616        -0.055612        -2.898304
 H         3.335275         2.495357        -2.007557
 H         1.556521         2.225713        -2.434493
 H         1.918540         2.883496         1.352267
