19
Iteration:  2516
 C        -0.037421         0.071266         0.059625
 C         1.455958         0.358454        -0.081441
 O         2.165018         0.176646         1.209824
 C         3.280099         0.633969         0.174794
 C         2.424855        -0.310368        -1.017949
 C         2.391327         0.429422        -2.388673
 C         2.500225         1.825966        -1.884779
 C         2.324950         1.704480        -0.281165
 O         1.940091         2.792488         0.421250
 H        -0.559754         0.478650         0.862181
 H        -0.613652         0.235380        -0.898916
 H         0.094128        -1.102028         0.302090
 H         4.271840         0.829160         0.573527
 H         2.485283        -1.384320        -0.889682
 H         3.250560         0.167353        -3.061506
 H         1.463556         0.123415        -2.964871
 H         3.490855         2.207960        -2.038371
 H         1.841272         2.520742        -2.313574
 H         2.392889         3.004150         1.237029
