19
Iteration:    74
 C        -0.120390        -0.006770         0.008088
 C         1.420945         0.319962        -0.042240
 O         2.222517         0.163172         1.207990
 C         3.192325         0.543555         0.271518
 C         2.593413        -0.269080        -0.943748
 C         2.419313         0.418317        -2.332346
 C         2.295870         1.891992        -1.905189
 C         2.334898         1.743654        -0.369968
 O         2.086248         2.894735         0.338295
 H        -0.664910         0.712176         0.802019
 H        -0.503731         0.071065        -1.022617
 H        -0.220521        -1.097888         0.395453
 H         4.219282         0.456869         0.708116
 H         2.764529        -1.315567        -0.930219
 H         3.320842         0.290648        -3.056111
 H         1.588325        -0.056398        -2.792503
 H         3.317645         2.357580        -2.266393
 H         1.560020         2.569315        -2.164390
 H         1.929153         2.536246         1.220858
