19
Iteration:  4375charge 0 multiplicity 1
 C        -0.044574         0.219234         0.066449
 C         1.435569         0.302808        -0.066561
 O         2.217548         0.151754         1.285928
 C         3.292701         0.531898         0.128365
 C         2.535828        -0.325692        -0.975280
 C         2.583299         0.471876        -2.347529
 C         2.276388         1.904523        -1.875998
 C         2.199963         1.653668        -0.390849
 O         1.974218         2.745643         0.359843
 H        -0.278668         1.186032         0.578986
 H        -0.487775         0.248982        -0.914755
 H        -0.406350        -0.626040         0.766094
 H         4.365423         0.646428         0.320083
 H         2.795065        -1.345353        -1.102409
 H         3.664507         0.449074        -2.755093
 H         1.826944        -0.066111        -2.943466
 H         2.969236         2.664524        -2.067665
 H         1.126483         2.148868        -2.081203
 H         1.891300         2.375050         1.272301
