19
Iteration:  1869
 C        -0.081459         0.088976         0.119443
 C         1.391631         0.352554        -0.051403
 O         2.258347         0.043130         1.152269
 C         3.239474         0.596966         0.042221
 C         2.394144        -0.295647        -0.974494
 C         2.506102         0.414827        -2.284423
 C         2.454133         1.934852        -1.871957
 C         2.263887         1.694713        -0.359038
 O         2.000291         2.880229         0.422142
 H        -0.734630         0.770296         0.789110
 H        -0.626477        -0.064009        -0.899986
 H        -0.021985        -0.950580         0.459834
 H         4.269763         0.583474         0.227851
 H         2.579979        -1.373886        -0.816458
 H         3.548592         0.410883        -2.726486
 H         1.863330        -0.165335        -3.000820
 H         3.382927         2.585377        -2.030793
 H         1.612722         2.572943        -2.095892
 H         1.856280         2.555490         1.325082
