19
Iteration:  4561
 C        -0.070716         0.265470         0.222338
 C         1.478534         0.365325        -0.072954
 O         2.223832         0.040443         1.076254
 C         3.231295         0.525406         0.084266
 C         2.552068        -0.301071        -0.924798
 C         2.675464         0.448449        -2.310261
 C         2.330408         1.871092        -1.929138
 C         2.161224         1.685373        -0.360229
 O         1.916215         2.799501         0.401978
 H        -0.471453         1.167906         0.711853
 H        -0.770440         0.201728        -0.696531
 H        -0.456756        -0.607927         0.917038
 H         4.254021         0.702401         0.460517
 H         2.723815        -1.357362        -0.939273
 H         3.781588         0.177321        -2.542895
 H         1.992071        -0.075977        -3.026256
 H         3.101405         2.552797        -2.118261
 H         1.285455         2.169468        -2.379051
 H         1.904799         2.450842         1.311938
