19
Iteration:  3121
 C        -0.022743         0.164613         0.054162
 C         1.426635         0.370211        -0.039047
 O         2.293749         0.163026         1.201031
 C         3.207257         0.611608         0.119333
 C         2.610449        -0.275124        -0.953139
 C         2.461706         0.324781        -2.306384
 C         2.346554         1.899185        -1.843329
 C         2.169888         1.639267        -0.342838
 O         1.984699         2.757395         0.353421
 H        -0.532018         0.754906         0.903984
 H        -0.502775         0.440702        -0.903614
 H        -0.349995        -0.835057         0.195390
 H         4.252274         0.866650         0.390595
 H         2.859667        -1.329248        -0.885259
 H         3.270408         0.224700        -3.065335
 H         1.643649        -0.048794        -2.877913
 H         3.294771         2.497844        -1.899991
 H         1.574944         2.514517        -2.309224
 H         1.525799         2.513051         1.184449
