19
Iteration:  2663charge 0 multiplicity 1
 C        -0.030597         0.210379         0.088211
 C         1.431814         0.370105        -0.048842
 O         2.308139         0.104116         1.201907
 C         3.236729         0.568435         0.120409
 C         2.447901        -0.334308        -1.027848
 C         2.475820         0.410226        -2.344976
 C         2.501180         1.834539        -1.839031
 C         2.285962         1.679977        -0.326410
 O         1.796265         2.790734         0.401636
 H        -0.375715         0.903706         0.969269
 H        -0.418388         0.596312        -0.887890
 H        -0.314236        -0.804782         0.314875
 H         4.331306         0.787125         0.362982
 H         2.572389        -1.457677        -0.844730
 H         3.412618         0.176297        -2.981771
 H         1.673433         0.244231        -3.052825
 H         3.364520         2.406569        -2.160978
 H         1.589641         2.293725        -2.290201
 H         2.187575         2.802327         1.326431
