19
Iteration:  1686charge 0 multiplicity 1
 C        -0.085548         0.045853         0.129679
 C         1.353042         0.386562         0.016239
 O         2.188708         0.162421         1.207587
 C         3.156496         0.550234         0.125057
 C         2.514020        -0.352033        -0.980224
 C         2.588184         0.459993        -2.384651
 C         2.341255         1.875346        -1.896842
 C         2.165928         1.675709        -0.358139
 O         2.146768         2.860897         0.379375
 H        -0.681486         0.690190         0.718936
 H        -0.518674        -0.070942        -0.905896
 H         0.036184        -0.945926         0.465530
 H         4.348202         0.659363         0.292536
 H         2.672649        -1.453789        -0.959563
 H         3.579376         0.365646        -2.971337
 H         1.859935         0.224347        -3.117569
 H         3.165131         2.630446        -2.004735
 H         1.352520         2.390388        -2.176602
 H         2.300109         2.582952         1.324252
