19
Iteration:  4202charge 0 multiplicity 1
 C         0.035401         0.342734         0.020009
 C         1.419410         0.390919        -0.139102
 O         2.277789         0.067602         1.107043
 C         3.210321         0.633341         0.179274
 C         2.557022        -0.353990        -0.979621
 C         2.575821         0.369429        -2.220296
 C         2.162618         1.881747        -1.872581
 C         2.209129         1.652351        -0.379964
 O         2.010312         2.736746         0.491491
 H        -0.230286         1.012182         0.770357
 H        -0.458171         0.338795        -0.981446
 H        -0.210119        -0.682264         0.561608
 H         4.256295         0.737511         0.500994
 H         2.766315        -1.387356        -0.877725
 H         3.490778         0.234440        -2.800888
 H         1.834663        -0.067509        -2.935469
 H         2.834469         2.597187        -2.313204
 H         1.172429         2.130910        -2.304000
 H         1.784870         2.359243         1.378797
