19
Iteration:  1859charge 0 multiplicity 1
 C        -0.180724        -0.035312         0.110087
 C         1.372428         0.341627        -0.034533
 O         2.267248         0.091315         1.072367
 C         3.192046         0.577670         0.108693
 C         2.497430        -0.258074        -0.955870
 C         2.539744         0.417089        -2.305497
 C         2.412838         1.930190        -1.837483
 C         2.206847         1.723543        -0.342440
 O         2.114915         2.911035         0.425802
 H        -0.605690         0.749037         0.825956
 H        -0.595271         0.029802        -0.974618
 H        -0.233405        -0.957618         0.708568
 H         4.233725         0.500022         0.404013
 H         2.588875        -1.366992        -0.950910
 H         3.511575         0.137501        -2.879264
 H         1.652227         0.198222        -2.933691
 H         3.353067         2.438295        -2.176408
 H         1.580800         2.455195        -2.329415
 H         1.800786         2.565828         1.286403
