19
Iteration:  4726
 C        -0.064750         0.250352         0.179921
 C         1.429922         0.304907        -0.122565
 O         2.223699         0.078209         1.144334
 C         3.124358         0.574145         0.186668
 C         2.572964        -0.285648        -0.964076
 C         2.597853         0.436313        -2.318703
 C         2.350417         1.887287        -1.900495
 C         2.159330         1.673750        -0.363492
 O         1.993934         2.739569         0.354332
 H        -0.153838         0.980915         0.922132
 H        -0.533597         0.578433        -0.784416
 H        -0.220968        -0.704647         0.603316
 H         4.160370         0.807765         0.481599
 H         2.715329        -1.375530        -0.808521
 H         3.659111         0.375199        -2.652309
 H         2.104561        -0.007864        -3.166702
 H         3.129272         2.502978        -2.084971
 H         1.369179         2.341614        -2.304741
 H         2.125962         2.459852         1.311930
