19
Iteration:  4666charge 0 multiplicity 1
 C        -0.016438         0.048930        -0.158527
 C         1.446643         0.333844        -0.004249
 O         2.263856         0.160317         1.264572
 C         3.215715         0.542154         0.124312
 C         2.469308        -0.334565        -0.857115
 C         2.423385         0.437027        -2.217149
 C         2.308075         1.970389        -1.857450
 C         2.152427         1.717212        -0.407944
 O         2.151640         2.830737         0.371771
 H        -0.689205         0.336634         0.713522
 H        -0.536986         0.280905        -1.041166
 H        -0.158465        -1.051961        -0.172489
 H         4.301335         0.619168         0.210923
 H         2.476814        -1.412442        -0.712535
 H         3.366365         0.096438        -2.598276
 H         1.536720         0.183156        -2.843001
 H         3.168587         2.701448        -2.212387
 H         1.495620         2.297730        -2.441362
 H         2.291236         2.659958         1.326923
