19
Iteration:  4896
 C        -0.078242         0.259169         0.144763
 C         1.383612         0.355757        -0.111652
 O         2.221631         0.082961         1.185852
 C         3.235727         0.544050         0.090935
 C         2.657428        -0.344845        -0.985678
 C         2.578266         0.371169        -2.366526
 C         2.367005         1.842041        -1.820128
 C         2.107868         1.649931        -0.414004
 O         1.923347         2.867233         0.444456
 H         0.104678         0.769296         1.143986
 H        -0.669485         0.827605        -0.573498
 H        -0.271583        -0.882948         0.171441
 H         4.303788         0.607443         0.501826
 H         2.957379        -1.366432        -0.954253
 H         3.480278         0.427415        -3.014199
 H         1.644538         0.175163        -2.991908
 H         3.282217         2.585249        -1.826783
 H         1.667195         2.195912        -2.454468
 H         2.037660         2.470389         1.326764
