19
Iteration:  3240
 C        -0.030012        -0.088384        -0.102727
 C         1.416426         0.349727         0.033313
 O         2.184662         0.257888         1.243766
 C         3.223512         0.555697         0.044580
 C         2.493933        -0.422366        -0.866724
 C         2.437215         0.430482        -2.231052
 C         2.224447         1.909805        -1.871710
 C         2.295603         1.704649        -0.409287
 O         2.153607         2.950292         0.422614
 H        -0.849079         0.401504         0.557046
 H        -0.258923         0.147930        -1.171395
 H        -0.244697        -1.113088         0.049937
 H         4.298443         0.606479         0.288624
 H         2.823318        -1.443696        -0.772891
 H         3.368548         0.296978        -2.843911
 H         1.573677         0.118904        -2.894543
 H         3.130760         2.485786        -2.208225
 H         1.351599         2.302607        -2.251040
 H         2.545320         2.742576         1.303436
