19
Iteration:  1159
 C         0.030800         0.148541         0.014436
 C         1.419732         0.367199        -0.081512
 O         2.279792         0.079517         1.110462
 C         3.178844         0.600616         0.121068
 C         2.541105        -0.328365        -0.931124
 C         2.453623         0.337400        -2.233923
 C         2.280236         1.862587        -1.884119
 C         2.212246         1.717947        -0.373273
 O         2.025781         2.891212         0.474540
 H        -0.448147         0.964144         0.630942
 H        -0.249010         0.363425        -0.968612
 H        -0.290280        -0.878510         0.415356
 H         4.148755         0.810868         0.530323
 H         2.576475        -1.351115        -0.698848
 H         3.476217         0.059724        -2.780981
 H         1.711077        -0.104283        -2.880492
 H         3.070205         2.457168        -2.261157
 H         1.338451         2.187235        -2.430184
 H         2.263357         2.633066         1.373474
