19
Iteration:  3917
 C        -0.083792         0.025052         0.003475
 C         1.430000         0.410519        -0.107667
 O         2.336205         0.084515         1.136111
 C         3.192854         0.440501         0.135560
 C         2.453956        -0.301564        -0.923811
 C         2.571043         0.443978        -2.340919
 C         2.323159         1.963886        -1.866211
 C         2.216453         1.781875        -0.303122
 O         2.038210         2.868826         0.491735
 H        -0.454350         0.647548         0.759658
 H        -0.637442         0.189527        -0.879549
 H        -0.341030        -1.103904         0.168508
 H         4.239184         0.546274         0.345362
 H         2.420803        -1.366427        -0.692080
 H         3.467570         0.184800        -2.938480
 H         1.602589         0.232111        -2.873143
 H         3.300337         2.458285        -2.179174
 H         1.426822         2.400101        -2.374164
 H         1.633723         2.534431         1.320905
