19
Iteration:   567
 C        -0.020782        -0.046021         0.017022
 C         1.422951         0.255992        -0.035448
 O         2.233222         0.155652         1.184068
 C         3.152941         0.594720         0.158573
 C         2.489819        -0.287895        -0.991800
 C         2.376323         0.420691        -2.285982
 C         2.408701         1.880148        -1.844111
 C         2.195694         1.717380        -0.333017
 O         2.152864         2.956384         0.384573
 H        -0.560948         0.682577         0.626410
 H        -0.311260         0.175655        -1.040656
 H        -0.327324        -1.017691         0.279708
 H         4.206137         0.622599         0.491849
 H         2.631946        -1.394117        -1.072542
 H         3.302244         0.163309        -2.863953
 H         1.419450         0.185351        -2.832773
 H         3.454397         2.290452        -1.936085
 H         1.679060         2.483380        -2.420373
 H         1.909010         2.743747         1.318231
