19
Iteration:  3739charge 0 multiplicity 1
 C        -0.035568         0.088157        -0.090392
 C         1.429401         0.285856        -0.042608
 O         2.288159         0.196712         1.210885
 C         3.237909         0.560496         0.141849
 C         2.488173        -0.331447        -0.994036
 C         2.420087         0.419210        -2.323025
 C         2.356547         1.934443        -1.758297
 C         2.190453         1.677195        -0.325838
 O         2.037904         2.807729         0.427278
 H        -0.634095         0.787363         0.580550
 H        -0.405480         0.228595        -1.121474
 H        -0.274782        -0.900493         0.202711
 H         4.285143         0.496680         0.448265
 H         2.790335        -1.397969        -0.972383
 H         3.357719         0.314630        -2.939800
 H         1.592415         0.202203        -2.956969
 H         3.213859         2.487841        -2.106200
 H         1.427496         2.560460        -2.113177
 H         2.271744         2.685429         1.349246
