19
Iteration:  4608
 C        -0.067129         0.199656         0.105767
 C         1.441844         0.352241         0.029861
 O         2.251354         0.149929         1.131468
 C         3.243918         0.476843         0.060332
 C         2.501926        -0.303805        -0.958770
 C         2.573907         0.417229        -2.239754
 C         2.374480         1.924519        -1.855636
 C         2.225569         1.690981        -0.366266
 O         1.916983         2.807183         0.367448
 H        -0.674128         1.022653         0.547360
 H        -0.421150        -0.040992        -0.980414
 H        -0.198335        -0.687861         0.686730
 H         4.336719         0.385370         0.253666
 H         2.494635        -1.445298        -1.010628
 H         3.537700         0.276223        -2.779673
 H         1.734483         0.179388        -2.916612
 H         3.326632         2.415647        -2.027559
 H         1.531207         2.333568        -2.432968
 H         1.987512         2.302630         1.240698
