19
Iteration:   755charge 0 multiplicity 1
 C        -0.057609        -0.121175         0.082206
 C         1.368900         0.274122        -0.117603
 O         2.193813         0.271196         1.223840
 C         3.154581         0.507283         0.157860
 C         2.444854        -0.266797        -1.046722
 C         2.444748         0.486706        -2.299361
 C         2.506072         1.881716        -1.806538
 C         2.267089         1.740998        -0.374866
 O         2.097788         2.904706         0.385599
 H        -0.377004         0.509388         0.893465
 H        -0.652851         0.077776        -0.885541
 H        -0.042448        -1.185230         0.404351
 H         4.234460         0.565771         0.299389
 H         2.668909        -1.423457        -1.025639
 H         3.219381         0.214392        -2.964021
 H         1.365390         0.257727        -2.738207
 H         3.565542         2.167233        -2.019395
 H         1.703402         2.494753        -2.314815
 H         1.990506         2.626396         1.328183
