19
Iteration:  2502
 C        -0.013565         0.122209         0.080394
 C         1.415159         0.403682        -0.039943
 O         2.305733         0.161215         1.170007
 C         3.154257         0.544919         0.159956
 C         2.461255        -0.330224        -1.007819
 C         2.496866         0.336468        -2.355291
 C         2.495426         1.906988        -1.846810
 C         2.246564         1.675678        -0.378465
 O         1.865457         2.849381         0.458047
 H        -0.487935         0.778668         0.876126
 H        -0.525405         0.434754        -0.867659
 H        -0.328910        -0.929698         0.278710
 H         4.209726         0.450415         0.357975
 H         2.754547        -1.426137        -1.074033
 H         3.350299         0.040445        -2.908786
 H         1.548779         0.174726        -3.030819
 H         3.522711         2.377148        -2.117523
 H         1.655449         2.477747        -2.319538
 H         2.370133         2.681401         1.284708
