19
Iteration:  1425charge 0 multiplicity 1
 C        -0.025508         0.169947         0.110293
 C         1.397886         0.348255        -0.005028
 O         2.291600         0.150880         1.183750
 C         3.224814         0.577793         0.151553
 C         2.532247        -0.333537        -0.928648
 C         2.476894         0.406902        -2.311351
 C         2.291587         1.900785        -1.891344
 C         2.213869         1.678195        -0.371149
 O         2.036287         2.782520         0.330594
 H        -0.585312         0.865688         0.764797
 H        -0.511381         0.362310        -0.977160
 H        -0.288314        -0.851160         0.391016
 H         4.219663         0.725459         0.363139
 H         2.695031        -1.416266        -0.913123
 H         3.546622         0.161662        -2.669093
 H         1.725959        -0.041222        -3.051018
 H         3.219057         2.470665        -2.144656
 H         1.518551         2.499804        -2.405941
 H         1.760169         2.451863         1.230466
