19
Iteration:   905charge 0 multiplicity 1
 C        -0.061893        -0.017433         0.102182
 C         1.374798         0.249585        -0.081138
 O         2.164743         0.171618         1.201145
 C         3.161595         0.531977         0.093517
 C         2.479090        -0.282380        -0.963831
 C         2.455145         0.478070        -2.303616
 C         2.482949         1.889471        -1.825515
 C         2.311470         1.722332        -0.362841
 O         2.055585         2.887811         0.362640
 H        -0.421470         0.700951         0.787377
 H        -0.582328         0.023565        -0.928108
 H        -0.189250        -1.017132         0.498336
 H         4.263346         0.587174         0.446368
 H         2.804767        -1.364647        -1.082361
 H         3.374126         0.236411        -3.013620
 H         1.594441         0.296131        -2.904417
 H         3.193251         2.701207        -2.032382
 H         1.496546         2.401180        -2.092103
 H         2.385240         2.769256         1.263334
