19
Iteration:    13
 C        -0.139492        -0.010046         0.011325
 C         1.371651         0.376842        -0.041888
 O         2.316952         0.171496         1.302848
 C         3.239578         0.565596         0.123883
 C         2.482698        -0.299054        -0.923326
 C         2.614213         0.357138        -2.316654
 C         2.365979         1.909278        -1.997349
 C         2.206597         1.752186        -0.393574
 O         2.046406         2.894830         0.467188
 H        -0.652536         0.622945         0.670341
 H        -0.682355         0.109369        -1.076538
 H        -0.239440        -1.049378         0.345419
 H         4.302777         0.695421         0.231036
 H         2.290540        -1.390653        -1.010590
 H         3.300433         0.040930        -3.041267
 H         1.574580         0.037787        -2.654927
 H         3.108039         2.591836        -2.270189
 H         1.373490         2.139004        -2.544940
 H         2.010732         2.470287         1.359776
