19
Iteration:  2647
 C        -0.030615         0.344930         0.105670
 C         1.451133         0.283534        -0.040372
 O         2.329015         0.106024         1.117582
 C         3.216964         0.525632         0.085008
 C         2.514677        -0.366802        -0.959310
 C         2.627777         0.320339        -2.304357
 C         2.356247         1.907963        -1.911388
 C         2.192319         1.702175        -0.363976
 O         1.787169         2.821166         0.489944
 H        -0.398911         1.006277         0.799662
 H        -0.665179         0.478596        -0.753079
 H        -0.475912        -0.695936         0.318316
 H         4.255794         0.264893         0.252398
 H         2.702796        -1.398796        -1.083218
 H         3.591418         0.136708        -2.773198
 H         1.815256        -0.065849        -2.981622
 H         3.275257         2.538511        -1.962529
 H         1.565010         2.551340        -2.255023
 H         2.412566         2.875911         1.252197
