19
Iteration:  3401
 C        -0.038917         0.032175        -0.136955
 C         1.450506         0.270875        -0.035106
 O         2.289494         0.197061         1.342264
 C         3.225688         0.643238         0.088473
 C         2.464217        -0.341914        -0.964782
 C         2.435815         0.395578        -2.297880
 C         2.298399         1.885017        -1.833316
 C         2.134168         1.674486        -0.261595
 O         2.160779         2.897620         0.359403
 H        -0.717948         0.803550         0.325195
 H        -0.287038         0.048687        -1.253873
 H        -0.314878        -0.874571         0.308330
 H         4.251055         0.691453         0.365154
 H         2.631781        -1.390409        -0.681577
 H         3.144303         0.115854        -3.100858
 H         1.515577         0.110469        -2.883386
 H         3.311973         2.357158        -2.028064
 H         1.454285         2.268919        -2.442473
 H         2.059309         2.788408         1.335957
