19
Iteration:   228
 C        -0.015330        -0.055060        -0.043323
 C         1.366358         0.428262        -0.060446
 O         2.199197         0.156254         1.205113
 C         3.191588         0.542385         0.149316
 C         2.508298        -0.217675        -0.911222
 C         2.338589         0.375516        -2.282462
 C         2.389334         1.882948        -1.940876
 C         2.389188         1.749945        -0.312199
 O         2.090772         2.905084         0.409206
 H        -0.795974         0.460076         0.695538
 H        -0.541764        -0.037043        -0.963362
 H        -0.010369        -1.151350         0.353028
 H         4.224274         0.402395         0.484203
 H         2.732257        -1.273798        -0.830163
 H         3.296172         0.163481        -2.870703
 H         1.507482        -0.104810        -2.768849
 H         3.338734         2.370197        -2.346354
 H         1.477216         2.361340        -2.186284
 H         2.003797         2.508233         1.287833
