19
Iteration:   872
 C        -0.032680         0.251811         0.011923
 C         1.435152         0.372670        -0.008502
 O         2.298563         0.109623         1.155202
 C         3.267330         0.543467         0.037009
 C         2.463547        -0.226044        -0.946167
 C         2.566417         0.353557        -2.300107
 C         2.322617         1.812697        -1.876269
 C         2.176016         1.693256        -0.345782
 O         1.955283         2.780565         0.500116
 H        -0.488354         1.019118         0.591578
 H        -0.420681         0.461681        -1.083996
 H        -0.342278        -0.709420         0.391920
 H         4.406735         0.558742         0.277244
 H         2.628415        -1.355212        -0.814527
 H         3.644800         0.281192        -2.765073
 H         1.788340         0.082119        -2.946178
 H         3.110867         2.622132        -2.158112
 H         1.261802         2.047203        -2.315962
 H         1.853633         2.274732         1.345159
