19
Iteration:   358charge 0 multiplicity 1
 C        -0.056890         0.070987         0.003586
 C         1.416781         0.379335        -0.003440
 O         2.275118         0.193818         1.156268
 C         3.261978         0.544239         0.053024
 C         2.427203        -0.351691        -0.922626
 C         2.516653         0.335383        -2.316649
 C         2.283046         1.933672        -1.850537
 C         2.205542         1.675783        -0.359395
 O         2.065439         2.866317         0.468846
 H        -0.543407         0.821694         0.683807
 H        -0.471148         0.231667        -0.934574
 H        -0.369552        -0.966065         0.257865
 H         4.321887         0.786565         0.261233
 H         2.544585        -1.394325        -0.844647
 H         3.665020         0.274043        -2.568450
 H         1.902258        -0.091324        -3.039101
 H         3.246789         2.430202        -2.273099
 H         1.396806         2.384529        -2.356386
 H         2.090572         2.654229         1.435222
