19
Iteration:  1577
 C         0.039305         0.317838         0.189030
 C         1.442208         0.422657        -0.049812
 O         2.239835         0.079780         1.168065
 C         3.188839         0.576690         0.138363
 C         2.557900        -0.362309        -0.947108
 C         2.605296         0.342973        -2.349429
 C         2.301490         1.845066        -1.947804
 C         2.180629         1.681760        -0.442008
 O         1.901594         2.750668         0.418812
 H        -0.214956         1.018535         0.931544
 H        -0.449760         0.675361        -0.790262
 H        -0.345933        -0.614136         0.475116
 H         4.242211         0.729860         0.520785
 H         2.684060        -1.416289        -0.880212
 H         3.592645         0.401739        -2.877981
 H         1.870831         0.044884        -3.037747
 H         3.204148         2.421161        -2.056549
 H         1.371577         2.334318        -2.234497
 H         1.875518         2.357972         1.330326
