19
Iteration:  2204charge 0 multiplicity 1
 C        -0.044874        -0.013407         0.011219
 C         1.433086         0.325828        -0.015992
 O         2.231314         0.128014         1.192241
 C         3.229416         0.543661         0.069512
 C         2.513020        -0.337006        -0.935938
 C         2.341282         0.468106        -2.303133
 C         2.544729         1.935152        -1.835970
 C         2.231335         1.743111        -0.301477
 O         2.003519         2.877168         0.345710
 H        -0.492669         0.769799         0.795968
 H        -0.637095         0.178064        -0.863941
 H        -0.214128        -1.045261         0.397637
 H         4.312719         0.521209         0.327979
 H         2.635252        -1.404131        -0.866995
 H         3.057021         0.279776        -3.098452
 H         1.301128         0.302963        -2.770074
 H         3.535456         2.390235        -1.871333
 H         1.827952         2.623591        -2.269883
 H         1.828465         2.460937         1.220492
