19
Iteration:  3042
 C        -0.085711        -0.036927         0.052076
 C         1.375690         0.215532        -0.067607
 O         2.224919         0.183527         1.179617
 C         3.206678         0.564315         0.175731
 C         2.561462        -0.307725        -0.887372
 C         2.570931         0.449636        -2.303470
 C         2.181723         1.936686        -1.863913
 C         2.211239         1.700500        -0.372335
 O         2.211839         2.920541         0.317276
 H        -0.567482         0.779683         0.686799
 H        -0.696964         0.092012        -0.877244
 H        -0.465950        -0.943455         0.477808
 H         4.253370         0.473013         0.463760
 H         2.606357        -1.438573        -0.718806
 H         3.592928         0.465909        -2.749179
 H         1.806010         0.065820        -3.055393
 H         3.106712         2.584052        -2.020338
 H         1.315117         2.433031        -2.227233
 H         1.691578         2.705136         1.138047
