19
Iteration:  1316charge 0 multiplicity 1
 C         0.041815         0.011136        -0.036941
 C         1.413298         0.392124        -0.019159
 O         2.232182         0.153043         1.142524
 C         3.168102         0.635172         0.150530
 C         2.482376        -0.286699        -0.894789
 C         2.349587         0.353436        -2.233053
 C         2.383424         1.857161        -1.867619
 C         2.204074         1.734140        -0.351379
 O         2.109068         2.884449         0.424043
 H        -0.532137         0.614570         0.636422
 H        -0.386300         0.093144        -1.107743
 H        -0.001434        -0.994709         0.269060
 H         4.182615         0.699939         0.251388
 H         2.784436        -1.372474        -0.964491
 H         3.105374        -0.037918        -2.971029
 H         1.420114         0.000682        -2.848163
 H         3.306750         2.283258        -2.359959
 H         1.467434         2.258119        -2.339075
 H         2.564642         2.650012         1.273340
