19
Iteration:   946charge 0 multiplicity 1
 C        -0.002739        -0.122106         0.015665
 C         1.349025         0.478323        -0.054714
 O         2.253286         0.080110         1.183107
 C         3.119677         0.607101         0.094772
 C         2.371251        -0.267008        -0.993883
 C         2.487375         0.383423        -2.290961
 C         2.446670         1.869748        -1.827496
 C         2.195601         1.746809        -0.296726
 O         2.177559         2.974071         0.419909
 H        -0.629880         0.329300         0.800744
 H        -0.511656        -0.098322        -0.990533
 H         0.176362        -1.097219         0.401887
 H         4.263163         0.513264         0.115008
 H         2.449375        -1.339408        -0.822308
 H         3.397594        -0.046430        -2.971100
 H         1.550926         0.269410        -2.869944
 H         3.377194         2.342893        -2.094624
 H         1.668786         2.325454        -2.328341
 H         1.650876         2.732890         1.223086
