19
Iteration:   809
 C        -0.066979         0.166394         0.024697
 C         1.449238         0.352948        -0.089441
 O         2.254486         0.051821         1.110113
 C         3.265985         0.545629         0.167207
 C         2.467359        -0.347067        -0.990703
 C         2.572201         0.313882        -2.369446
 C         2.276222         1.876463        -1.836140
 C         2.245701         1.714526        -0.325615
 O         1.940691         2.946879         0.525090
 H        -0.393485         0.846676         0.815817
 H        -0.591129         0.394650        -0.995351
 H        -0.242924        -0.872179         0.417529
 H         4.331337         0.572318         0.488715
 H         2.563721        -1.451252        -0.606548
 H         3.583371         0.258724        -2.691240
 H         1.985390        -0.109895        -3.225583
 H         3.010634         2.567320        -2.342416
 H         1.309041         2.333372        -2.245110
 H         2.683626         3.148794         1.124788
