19
Iteration:   594
 C        -0.086523        -0.044204         0.106723
 C         1.338008         0.484917        -0.109486
 O         2.229230         0.137835         1.150825
 C         3.175301         0.590496         0.094137
 C         2.491633        -0.319498        -0.939936
 C         2.428209         0.412556        -2.287064
 C         2.485238         1.897550        -1.935459
 C         2.307127         1.688066        -0.315325
 O         2.036980         2.889895         0.435190
 H        -0.775647         0.335406         0.885578
 H        -0.518986        -0.001565        -0.877917
 H         0.042940        -1.183141         0.245171
 H         4.242111         0.577847         0.278672
 H         2.652702        -1.475629        -0.653677
 H         3.337706         0.294774        -2.825990
 H         1.463657         0.177503        -2.833815
 H         3.485501         2.232708        -2.022597
 H         1.758877         2.510368        -2.441556
 H         2.266063         2.721481         1.373921
