19
Iteration:  1038
 C         0.013810         0.355941         0.064323
 C         1.467201         0.395375        -0.060071
 O         2.351368         0.128607         1.153353
 C         3.304766         0.467258         0.154295
 C         2.471408        -0.353687        -0.988041
 C         2.607257         0.375772        -2.339664
 C         2.243701         1.870309        -1.813544
 C         2.200142         1.660317        -0.343176
 O         1.840056         2.726032         0.398507
 H        -0.449756         1.133716         0.660408
 H        -0.536412         0.508519        -0.827106
 H        -0.494595        -0.526153         0.540460
 H         4.359043         0.513950         0.484942
 H         2.470816        -1.430961        -0.914539
 H         3.750306         0.569347        -2.703423
 H         2.073961         0.129964        -3.275790
 H         2.892979         2.672270        -2.167935
 H         1.163581         2.054734        -2.218523
 H         1.894788         2.580221         1.370138
