19
Iteration:  2079
 C        -0.040377         0.339303        -0.015788
 C         1.418301         0.318296        -0.091000
 O         2.353439         0.005560         1.212651
 C         3.189201         0.591281         0.088817
 C         2.545197        -0.213673        -0.998809
 C         2.534265         0.360421        -2.305860
 C         2.260391         1.841594        -1.884466
 C         2.238577         1.668550        -0.319528
 O         1.978480         2.786631         0.494139
 H        -0.216970         1.071912         0.746919
 H        -0.849127         0.430860        -0.824361
 H        -0.309362        -0.669930         0.407597
 H         4.250067         0.713586         0.330024
 H         2.709429        -1.290328        -0.881484
 H         3.591373         0.163024        -2.785760
 H         1.749801         0.076888        -2.972295
 H         2.968678         2.611556        -2.246755
 H         1.214093         2.217081        -2.181373
 H         1.725713         2.269659         1.289091
