19
Iteration:   425charge 0 multiplicity 1
 C        -0.111246         0.009414         0.009427
 C         1.352833         0.282396        -0.024596
 O         2.306631         0.043448         1.262230
 C         3.196461         0.637503         0.107178
 C         2.474293        -0.244108        -0.961520
 C         2.441765         0.393234        -2.306499
 C         2.439111         1.915058        -1.970759
 C         2.221157         1.711202        -0.279636
 O         2.090585         2.917557         0.367159
 H        -0.523746         0.722338         0.786090
 H        -0.635059         0.132738        -0.921664
 H        -0.352142        -0.971535         0.383432
 H         4.259660         0.788070         0.314907
 H         2.590578        -1.379216        -0.786615
 H         3.316538         0.097085        -2.925924
 H         1.527433         0.078708        -2.822944
 H         3.410693         2.509954        -2.040961
 H         1.696145         2.546435        -2.415223
 H         2.070243         2.786103         1.344779
