19
Iteration:  4742charge 0 multiplicity 1
 C        -0.104189         0.274212         0.170361
 C         1.422415         0.328832        -0.035552
 O         2.214608         0.157266         1.174073
 C         3.249227         0.536524         0.050295
 C         2.547730        -0.365665        -1.030850
 C         2.712185         0.424020        -2.375780
 C         2.343264         1.860482        -1.826423
 C         2.230336         1.642045        -0.391641
 O         1.861214         2.769451         0.441119
 H        -0.482493         1.147900         0.856507
 H        -0.708385         0.479746        -0.752890
 H        -0.442490        -0.628474         0.800667
 H         4.382449         0.625251         0.219579
 H         2.720572        -1.475401        -0.986678
 H         3.666437         0.169335        -2.855520
 H         1.852127         0.132425        -3.029803
 H         3.306548         2.576112        -1.980467
 H         1.511761         2.221405        -2.355797
 H         2.048734         2.657261         1.382740
