19
Iteration:   815
 C        -0.033122         0.234860         0.036552
 C         1.461909         0.355599        -0.047025
 O         2.219514         0.056307         1.139025
 C         3.249354         0.546065         0.125962
 C         2.492109        -0.374051        -0.983981
 C         2.590681         0.321898        -2.345281
 C         2.231131         1.894912        -1.837309
 C         2.324871         1.664670        -0.394627
 O         1.907842         2.913718         0.522174
 H        -0.526660         0.909315         0.755083
 H        -0.509805         0.393146        -0.922062
 H        -0.299201        -0.772637         0.286340
 H         4.290265         0.662550         0.516640
 H         2.678053        -1.373568        -0.773749
 H         3.640502         0.412523        -2.838735
 H         1.964911        -0.071985        -3.136165
 H         2.911733         2.620684        -2.250124
 H         1.224679         2.166676        -2.132101
 H         2.664161         2.944641         1.135854
