19
Iteration:  3037charge 0 multiplicity 1
 C        -0.121600         0.006996         0.066304
 C         1.416264         0.230385        -0.092070
 O         2.233598         0.174997         1.150469
 C         3.230758         0.548632         0.174374
 C         2.561793        -0.327152        -0.888109
 C         2.556366         0.447138        -2.266117
 C         2.231950         1.940355        -1.865994
 C         2.207923         1.713032        -0.375169
 O         2.149158         2.875310         0.312852
 H        -0.457765         0.805061         0.691391
 H        -0.682275         0.109695        -0.851451
 H        -0.421852        -0.969934         0.606977
 H         4.280263         0.497518         0.527076
 H         2.614630        -1.374346        -0.746795
 H         3.542456         0.560796        -2.696558
 H         1.781217         0.137572        -2.941427
 H         3.051061         2.587860        -2.049979
 H         1.282477         2.369410        -2.333817
 H         1.776520         2.901056         1.206093
