19
Iteration:  1365charge 0 multiplicity 1
 C         0.010078         0.310324         0.177835
 C         1.464944         0.389829        -0.027806
 O         2.268611         0.084912         1.153510
 C         3.217679         0.551488         0.012840
 C         2.431842        -0.299543        -0.927603
 C         2.718896         0.378332        -2.283587
 C         2.207290         1.827869        -1.879045
 C         2.248948         1.692091        -0.364119
 O         1.898199         2.767440         0.371013
 H        -0.245236         1.112650         0.907522
 H        -0.484700         0.436041        -0.708163
 H        -0.276159        -0.685012         0.625112
 H         4.403007         0.554678         0.149624
 H         2.476758        -1.367856        -1.004369
 H         3.742056         0.148773        -2.489925
 H         2.200178         0.074979        -3.146784
 H         2.929546         2.542082        -2.243266
 H         1.247256         1.949627        -2.385830
 H         1.625286         2.533332         1.268804
