19
Iteration:  1228charge 0 multiplicity 1
 C        -0.077540         0.269338         0.219106
 C         1.425094         0.409936        -0.043476
 O         2.286335         0.056006         1.102286
 C         3.223107         0.588717         0.128128
 C         2.519403        -0.323633        -0.948641
 C         2.700591         0.331269        -2.333782
 C         2.312487         1.837912        -1.946891
 C         2.188500         1.736051        -0.406133
 O         1.904006         2.771717         0.441089
 H        -0.430497         1.022543         0.924946
 H        -0.618076         0.438515        -0.724512
 H        -0.331743        -0.652080         0.638239
 H         4.239239         0.779577         0.333124
 H         2.475758        -1.456430        -0.877193
 H         3.716600         0.195711        -2.834059
 H         1.945701         0.000380        -3.185857
 H         2.950878         2.725393        -2.308103
 H         1.232163         2.089051        -2.171755
 H         2.160218         2.557089         1.357728
