19
Iteration:  2410
 C        -0.134036         0.136934        -0.042707
 C         1.392757         0.299184        -0.010391
 O         2.291759         0.163166         1.255464
 C         3.236760         0.596455         0.115302
 C         2.425619        -0.341770        -0.987064
 C         2.596174         0.427901        -2.323786
 C         2.307122         1.866186        -1.881051
 C         2.190253         1.638729        -0.329844
 O         2.082615         2.847630         0.414293
 H        -0.492149         0.893830         0.710919
 H        -0.573802         0.206359        -1.025869
 H        -0.444896        -0.857028         0.360231
 H         4.345282         0.669982         0.303195
 H         2.640262        -1.366545        -1.069826
 H         3.661663         0.156991        -2.653251
 H         1.951665         0.077548        -3.064202
 H         2.877404         2.771325        -2.007857
 H         1.198382         2.147427        -2.134532
 H         2.555859         2.786581         1.251137
