19
Iteration:  1113charge 0 multiplicity 1
 C         0.007759        -0.159507        -0.022777
 C         1.401537         0.356102        -0.007533
 O         2.211310         0.271365         1.205337
 C         3.204126         0.550522         0.138625
 C         2.374903        -0.341970        -0.899748
 C         2.399294         0.449569        -2.247206
 C         2.432536         1.981967        -1.884005
 C         2.245376         1.698728        -0.423507
 O         2.152473         2.897645         0.367561
 H        -0.740725         0.211407         0.670809
 H        -0.501730        -0.090974        -1.025875
 H         0.046147        -1.264000         0.250797
 H         4.310542         0.434133         0.475782
 H         2.285566        -1.441772        -0.829787
 H         3.173426         0.011716        -2.985311
 H         1.473454         0.464155        -2.748020
 H         3.366101         2.470053        -1.977751
 H         1.695360         2.670339        -2.249561
 H         2.173332         2.561122         1.275191
