19
Iteration:   547
 C        -0.123427         0.071510        -0.060536
 C         1.360603         0.360541        -0.014795
 O         2.258760         0.169957         1.252605
 C         3.279385         0.534811         0.074489
 C         2.558654        -0.365839        -0.865155
 C         2.467866         0.448879        -2.363796
 C         2.305733         1.973089        -1.773685
 C         2.272686         1.649169        -0.320593
 O         2.091484         2.829583         0.298364
 H        -0.613321         0.684840         0.659400
 H        -0.613463         0.095540        -1.087103
 H        -0.205168        -0.901859         0.341747
 H         4.343415         0.651510         0.308734
 H         2.677446        -1.588550        -0.665976
 H         3.286961         0.346302        -3.011366
 H         1.439588         0.205980        -2.859322
 H         3.134424         2.632107        -2.028880
 H         1.339779         2.451879        -1.936197
 H         2.039774         2.508960         1.220214
