19
Iteration:  3629
 C        -0.086095        -0.041539         0.146106
 C         1.363876         0.318869        -0.142718
 O         2.231390         0.063144         1.135510
 C         3.144233         0.544154         0.133077
 C         2.465137        -0.215348        -0.954187
 C         2.590969         0.369269        -2.299023
 C         2.386010         1.941629        -1.849087
 C         2.172903         1.751988        -0.354193
 O         2.119069         2.965069         0.407942
 H        -0.453568         0.591960         0.991684
 H        -0.678784         0.060243        -0.819139
 H        -0.068876        -1.065753         0.348869
 H         4.167045         0.712333         0.390587
 H         2.572113        -1.301830        -0.867983
 H         3.503944         0.052902        -2.924319
 H         1.805047         0.044751        -2.961835
 H         3.262338         2.466813        -2.004102
 H         1.644740         2.628162        -2.417863
 H         2.078554         2.479387         1.276460
