19
Iteration:  1708charge 0 multiplicity 1
 C        -0.195900         0.154128         0.177935
 C         1.404894         0.302232        -0.040976
 O         2.369089         0.128638         1.142999
 C         3.187828         0.526107         0.031466
 C         2.465077        -0.270621        -0.994747
 C         2.626399         0.383060        -2.279002
 C         2.386827         1.894036        -1.848832
 C         2.191084         1.683514        -0.337906
 O         1.986666         2.819307         0.389366
 H        -0.459361         0.987119         0.770678
 H        -0.677895         0.334671        -0.837229
 H        -0.494840        -0.818091         0.513787
 H         4.393014         0.736456         0.161552
 H         2.514994        -1.366818        -0.826261
 H         3.693096         0.376302        -2.701778
 H         2.032026         0.070087        -3.099437
 H         3.289849         2.567223        -1.934059
 H         1.503577         2.363933        -2.448449
 H         1.606362         2.651287         1.256317
