19
Iteration:  4756
 C        -0.110825         0.267115         0.146000
 C         1.420880         0.400388        -0.077713
 O         2.356227         0.162277         1.125764
 C         3.247467         0.429477         0.051834
 C         2.495853        -0.330847        -0.968503
 C         2.628809         0.385472        -2.256027
 C         2.424941         1.892082        -1.897672
 C         2.199529         1.684418        -0.314632
 O         1.821298         2.771913         0.434968
 H        -0.344238         1.239430         0.618354
 H        -0.528203         0.085139        -0.856276
 H        -0.529550        -0.717834         0.641334
 H         4.314200         0.521729         0.298630
 H         2.385227        -1.389726        -0.993504
 H         3.650112         0.349441        -2.745101
 H         1.916508         0.012949        -3.042537
 H         3.249349         2.669255        -2.192489
 H         1.454491         2.372273        -2.352576
 H         1.796860         2.314749         1.322762
