19
Iteration:   264charge 0 multiplicity 1
 C        -0.042676         0.317487         0.106079
 C         1.466271        -0.000294         0.114207
 C         2.138176        -0.568419         1.424526
 C         3.535637        -0.340655         1.064730
 O         3.931080         0.986454         1.435080
 C         3.091388         1.968994         0.733381
 C         2.489538         1.043927        -0.378024
 C         3.282495        -0.200529        -0.453784
 O         2.090120        -0.931550        -0.830092
 H        -0.573212        -0.442814        -0.398605
 H        -0.488933         0.475853         1.106752
 H        -0.010178         1.257561        -0.557835
 H         1.919073        -0.044010         2.344647
 H         1.823739        -1.664781         1.456987
 H         4.250587        -1.134507         1.361544
 H         2.472308         2.507268         1.398737
 H         3.972081         2.648133         0.403620
 H         2.355210         1.335536        -1.333812
 H         4.113889        -0.395715        -1.199470
