19
Iteration:   950
 C        -0.033305         0.441587        -0.160072
 C         1.483234         0.035229         0.147709
 C         2.077837        -0.221920         1.656211
 C         3.525053        -0.193740         1.252382
 O         4.015104         1.251426         1.199967
 C         3.112481         1.966751         0.280399
 C         2.532988         0.758097        -0.536811
 C         3.315339        -0.550772        -0.244421
 O         1.959765        -1.257438        -0.364584
 H        -0.408973        -0.114390        -1.020091
 H        -0.598772         0.314010         0.711525
 H         0.010756         1.564412        -0.442269
 H         1.950167         0.524904         2.546300
 H         1.752173        -1.233113         1.971688
 H         4.362829        -0.810958         1.696859
 H         2.332907         2.584042         0.845947
 H         3.811842         2.506042        -0.424465
 H         2.558054         0.986832        -1.646511
 H         4.169832        -0.987758        -0.743079
