19
Iteration:  4011charge 0 multiplicity 1
 C        -0.024229         0.372957        -0.076505
 C         1.483977        -0.034682         0.248449
 C         1.949246        -0.117419         1.699047
 C         3.488408        -0.133224         1.232036
 O         4.071468         1.236819         1.136919
 C         3.189812         1.907459         0.213378
 C         2.553540         0.780121        -0.582957
 C         3.300093        -0.511695        -0.265517
 O         1.995092        -1.297170        -0.379017
 H        -0.045271         1.507438        -0.019455
 H        -0.431065         0.138026        -1.080860
 H        -0.722026         0.084787         0.718727
 H         1.937849         0.798140         2.365092
 H         1.630161        -1.037778         2.160782
 H         4.225922        -0.761690         1.870474
 H         2.446965         2.467555         0.806440
 H         3.766355         2.590910        -0.466136
 H         2.428829         1.072409        -1.617786
 H         4.114920        -1.000307        -0.875792
