19
Iteration:   414charge 0 multiplicity 1
 C        -0.079619         0.265420         0.011932
 C         1.434688         0.096523         0.204428
 C         2.014893        -0.475299         1.470953
 C         3.549659        -0.269359         1.049628
 O         3.978850         1.053577         1.430022
 C         3.244822         1.986429         0.542261
 C         2.548447         0.988878        -0.346261
 C         3.308216        -0.329128        -0.442440
 O         2.018070        -1.050782        -0.723634
 H        -0.527353         0.149811         0.953735
 H        -0.265282         1.180588        -0.542945
 H        -0.472786        -0.579688        -0.616535
 H         1.968905         0.114752         2.418651
 H         1.572190        -1.492559         1.649433
 H         4.318686        -0.855725         1.644966
 H         2.551106         2.615904         1.238366
 H         3.865900         2.715670         0.141794
 H         2.260130         1.454183        -1.353945
 H         4.230182        -0.445124        -1.123280
