19
Iteration:  1565charge 0 multiplicity 1
 C        -0.068054         0.281412        -0.027190
 C         1.427320         0.069263         0.205334
 C         1.978258        -0.066195         1.627557
 C         3.463167        -0.111939         1.263670
 O         3.999367         1.289948         1.232086
 C         3.337567         1.902377         0.072115
 C         2.635819         0.778489        -0.568903
 C         3.301637        -0.606751        -0.253290
 O         1.948615        -1.252249        -0.337672
 H        -0.252920         1.144960         0.637395
 H        -0.292896         0.514169        -1.155481
 H        -0.606255        -0.634720         0.302867
 H         1.694212         0.592431         2.434252
 H         1.863609        -1.167043         1.980136
 H         3.993701        -0.690045         2.011224
 H         2.605609         2.735994         0.238633
 H         4.153827         2.234630        -0.522718
 H         2.401911         0.864636        -1.642550
 H         4.066991        -1.090960        -0.818010
