19
Iteration:  3180charge 0 multiplicity 1
 C         0.020204         0.193335        -0.178916
 C         1.443098        -0.038614         0.220453
 C         1.952962         0.137581         1.684347
 C         3.474763        -0.137145         1.184488
 O         4.054056         1.189907         1.156456
 C         3.353916         1.939443         0.098379
 C         2.534902         0.803231        -0.523508
 C         3.221487        -0.547928        -0.203926
 O         1.966921        -1.268778        -0.217117
 H        -0.560464         0.208062         0.742786
 H        -0.058656         1.160824        -0.659608
 H        -0.430513        -0.634216        -0.805470
 H         1.770563         1.088058         2.273609
 H         1.563005        -0.751478         2.295472
 H         4.048019        -0.829985         1.828410
 H         2.725532         2.724435         0.606884
 H         4.005912         2.318370        -0.655635
 H         2.286416         0.843619        -1.556048
 H         4.005630        -1.003565        -0.865237
