19
Iteration:   259charge 0 multiplicity 1
 C        -0.019060         0.294516         0.085934
 C         1.478535        -0.007921         0.095688
 C         2.095574        -0.596395         1.447537
 C         3.504868        -0.318990         1.039666
 O         3.963652         0.982109         1.429719
 C         3.117579         1.944688         0.731572
 C         2.487382         1.069735        -0.381379
 C         3.317434        -0.189945        -0.440330
 O         2.055664        -0.911254        -0.810613
 H        -0.581968        -0.631591        -0.338854
 H        -0.374921         0.606007         1.076112
 H        -0.116423         1.111569        -0.563734
 H         1.890893         0.038602         2.396010
 H         1.836763        -1.620893         1.559752
 H         4.263087        -1.029724         1.356727
 H         2.392657         2.394191         1.520097
 H         3.861332         2.609929         0.446460
 H         2.395189         1.465840        -1.521681
 H         4.041838        -0.358839        -1.186049
