19
Iteration:  3304
 C        -0.082285         0.144640        -0.090644
 C         1.356873         0.093513         0.225915
 C         1.890102         0.136087         1.681535
 C         3.423845        -0.124505         1.314639
 O         4.169332         1.220337         1.076683
 C         3.448089         1.851860         0.084030
 C         2.573805         0.779552        -0.585577
 C         3.240903        -0.547949        -0.139429
 O         1.959727        -1.261274        -0.282405
 H        -0.037195        -0.948254        -0.360719
 H        -0.734393         0.261559         0.856834
 H        -0.333875         0.607860        -1.031442
 H         1.793935         1.179956         2.135439
 H         1.441079        -0.714872         2.165706
 H         4.065349        -0.773724         1.980769
 H         2.701707         2.668683         0.311527
 H         4.062550         2.375014        -0.698440
 H         2.394727         1.108665        -1.703997
 H         4.073338        -1.043840        -0.640144
