19
Iteration:  4286charge 0 multiplicity 1
 C        -0.122687         0.083597        -0.073312
 C         1.413029         0.056899         0.224445
 C         2.000352         0.199576         1.593178
 C         3.490535        -0.165703         1.249931
 O         4.158512         1.187955         1.083961
 C         3.335402         1.874132         0.151355
 C         2.537435         0.838444        -0.580829
 C         3.234082        -0.544884        -0.207126
 O         1.949609        -1.268379        -0.215597
 H        -0.377946        -0.972513        -0.402228
 H        -0.766025         0.332803         0.801898
 H        -0.232227         0.885903        -0.904763
 H         1.848602         1.169649         2.066753
 H         1.497345        -0.499478         2.191169
 H         4.076616        -0.718470         2.022240
 H         2.791211         2.616852         0.781324
 H         4.055230         2.442464        -0.510207
 H         2.406674         0.951508        -1.676285
 H         4.021412        -0.966512        -0.947606
