19
Iteration:  3575charge 0 multiplicity 1
 C        -0.009385         0.305582        -0.090035
 C         1.422169         0.059725         0.196108
 C         2.039193         0.008817         1.605480
 C         3.488073        -0.183854         1.283298
 O         3.999519         1.221171         1.250624
 C         3.244101         1.895167         0.161984
 C         2.558943         0.780162        -0.548889
 C         3.253812        -0.560786        -0.327852
 O         2.016379        -1.322812        -0.346939
 H        -0.007435         1.202738        -0.757630
 H        -0.471883        -0.643001        -0.573959
 H        -0.471367         0.716332         0.821565
 H         1.997840         0.949624         2.275380
 H         1.721405        -0.781994         2.250595
 H         3.949071        -0.671848         2.114196
 H         2.499116         2.538220         0.698136
 H         3.938914         2.513845        -0.385598
 H         2.456730         1.151935        -1.585961
 H         3.876404        -0.952999        -1.071022
