19
Iteration:  4511charge 0 multiplicity 1
 C        -0.010611         0.467277        -0.012635
 C         1.449623        -0.017744         0.212140
 C         2.030020         0.089305         1.626948
 C         3.522899        -0.061955         1.251574
 O         3.923579         1.259013         1.179931
 C         3.242830         1.859351        -0.054474
 C         2.573884         0.668990        -0.663575
 C         3.337882        -0.595518        -0.195583
 O         2.023121        -1.434581        -0.154295
 H        -0.371155         1.293841         0.710592
 H        -0.127108         0.774666        -1.052471
 H        -0.666032        -0.370609         0.131648
 H         1.743710         1.143189         1.899352
 H         1.460806        -0.523118         2.351149
 H         4.171842        -0.684877         1.970664
 H         2.452917         2.489117         0.414677
 H         3.884761         2.342448        -0.772677
 H         2.225036         0.665852        -1.673017
 H         4.029529        -1.184105        -0.751303
