19
Iteration:  2606
 C         0.002588         0.415588        -0.001698
 C         1.438786         0.005197         0.231550
 C         1.990119        -0.106894         1.687556
 C         3.527370        -0.081257         1.288625
 O         3.921789         1.282138         1.178781
 C         3.255674         1.889298         0.074539
 C         2.594949         0.698697        -0.651851
 C         3.341818        -0.605226        -0.258402
 O         2.003774        -1.258661        -0.322630
 H        -0.258830         1.418693        -0.088723
 H        -0.308950        -0.038124        -0.992412
 H        -0.724478        -0.007648         0.740252
 H         1.576158         0.665748         2.424295
 H         1.753605        -1.028037         2.079971
 H         4.314575        -0.577878         1.885931
 H         2.459115         2.761080         0.259701
 H         4.096239         2.331407        -0.420048
 H         2.173744         0.834133        -1.599445
 H         4.001715        -1.257141        -0.824418
