19
Iteration:  3285charge 0 multiplicity 1
 C        -0.073478         0.083157        -0.162074
 C         1.383309         0.057132         0.237754
 C         1.952323         0.056520         1.717285
 C         3.460475         0.023587         1.306143
 O         4.127275         1.173346         1.161249
 C         3.452400         1.901716        -0.007739
 C         2.578724         0.757440        -0.607090
 C         3.207979        -0.560532        -0.220728
 O         1.923863        -1.185810        -0.200337
 H        -0.551046        -0.941648        -0.421030
 H        -0.560441         0.475409         0.754696
 H        -0.093242         0.897926        -0.898163
 H         1.575437         0.813938         2.343269
 H         1.534835        -0.940079         2.112903
 H         3.970329        -0.666120         2.013534
 H         2.931710         2.821001         0.335678
 H         4.312809         2.224756        -0.706961
 H         2.183660         0.801610        -1.699054
 H         4.044526        -1.048773        -0.760432
