19
Iteration:  3848
 C         0.020083         0.392417        -0.077789
 C         1.412118         0.013708         0.204971
 C         1.962659        -0.131843         1.655086
 C         3.500357        -0.118273         1.199225
 O         4.009603         1.210106         1.111272
 C         3.193056         1.946188         0.171790
 C         2.574883         0.802814        -0.545062
 C         3.306608        -0.586151        -0.185150
 O         2.044149        -1.254464        -0.327490
 H        -0.238646         1.501540        -0.160369
 H        -0.360481        -0.165422        -0.917816
 H        -0.594613         0.077153         0.799570
 H         1.714379         0.832853         2.277930
 H         1.701748        -1.084539         2.053632
 H         4.074370        -0.853051         1.911295
 H         2.534399         2.526235         0.826609
 H         3.984033         2.532234        -0.343756
 H         2.332443         0.700519        -1.614642
 H         4.063742        -1.121348        -0.847227
