19
Iteration:  4033charge 0 multiplicity 1
 C         0.016103         0.456951        -0.100102
 C         1.446969        -0.028392         0.324688
 C         2.071351        -0.090074         1.624368
 C         3.554695        -0.152409         1.198865
 O         3.958597         1.186093         1.238742
 C         3.208120         1.900631         0.146097
 C         2.415414         0.759221        -0.509320
 C         3.229594        -0.474119        -0.299090
 O         2.090119        -1.327173        -0.356872
 H        -0.091452         1.492211        -0.573917
 H        -0.259245        -0.057223        -1.053609
 H        -0.853732         0.349515         0.572689
 H         1.890588         0.764849         2.341763
 H         1.891258        -1.040639         2.090514
 H         4.186031        -0.824221         1.905661
 H         2.621508         2.680706         0.639334
 H         4.030936         2.248570        -0.530307
 H         2.155456         1.042962        -1.519011
 H         4.047859        -0.806191        -0.997239
