19
Iteration:  4951charge 0 multiplicity 1
 C        -0.224471         0.093779        -0.058692
 C         1.390603         0.112915         0.244012
 C         2.011307         0.323477         1.595175
 C         3.480853         0.022449         1.351646
 O         4.219355         1.138866         0.959978
 C         3.341731         1.870881        -0.009090
 C         2.609156         0.686743        -0.639045
 C         3.206505        -0.622448        -0.119142
 O         1.995328        -1.302574        -0.113260
 H        -0.517312        -0.746799        -0.686500
 H        -0.873641         0.055297         0.907517
 H        -0.522858         0.996300        -0.598854
 H         1.605068         1.225174         2.013522
 H         1.631279        -0.536342         2.208109
 H         3.981984        -0.442676         2.132056
 H         2.547365         2.464210         0.497590
 H         4.115318         2.379762        -0.620236
 H         2.384857         0.552052        -1.721823
 H         4.140817        -1.119356        -0.451538
