19
Iteration:  1031
 C        -0.062989        -0.031631        -0.059085
 C         1.355988         0.088156         0.178568
 C         1.912320         0.060600         1.645314
 C         3.400645        -0.148917         1.298835
 O         4.122371         1.087381         1.232390
 C         3.496532         1.961546         0.127353
 C         2.634478         0.950172        -0.576263
 C         3.163843        -0.484987        -0.246432
 O         1.955630        -1.153254        -0.398271
 H        -0.579430         0.701592        -0.678723
 H        -0.497996        -1.029759        -0.473404
 H        -0.520350         0.150368         0.859991
 H         1.622358         0.918952         2.252286
 H         1.549965        -1.034749         2.188768
 H         4.117413        -0.768597         1.906813
 H         2.883442         2.777683         0.611398
 H         4.282229         2.578318        -0.308280
 H         2.749704         0.983435        -1.647687
 H         4.040698        -0.896091        -0.872172
