19
Iteration:   675charge 0 multiplicity 1
 C        -0.080602         0.127411        -0.095034
 C         1.411210         0.053835         0.150221
 C         1.946162        -0.126931         1.575371
 C         3.452893        -0.252179         1.121716
 O         4.145817         1.061517         1.234467
 C         3.214552         1.915852         0.500714
 C         2.542368         1.006694        -0.387659
 C         3.296980        -0.397387        -0.378094
 O         2.042472        -1.121815        -0.508403
 H        -0.534742        -0.796116         0.145510
 H        -0.519161         0.828470         0.565228
 H        -0.148131         0.417235        -1.178305
 H         1.894088         0.837453         2.213677
 H         1.564237        -0.990665         2.092164
 H         4.049902        -1.026374         1.601255
 H         2.692743         2.408603         1.274704
 H         3.792432         2.640555        -0.103138
 H         2.380541         1.344624        -1.377682
 H         4.122682        -0.565098        -1.096565
