19
Iteration:  3267
 C        -0.123833         0.257413        -0.108097
 C         1.410140         0.045006         0.186158
 C         1.987789         0.022910         1.646515
 C         3.470160        -0.174851         1.279574
 O         4.027025         1.311509         1.153543
 C         3.425095         1.853426         0.000447
 C         2.558585         0.809958        -0.599147
 C         3.254551        -0.543987        -0.130439
 O         1.980157        -1.320169        -0.206998
 H        -0.454158        -0.736591        -0.269910
 H        -0.839791         0.593889         0.571724
 H        -0.295878         0.836780        -1.043168
 H         1.953795         0.961083         2.221546
 H         1.612613        -0.688317         2.410118
 H         4.185833        -0.680489         1.888574
 H         2.949854         2.755376         0.375112
 H         4.155947         2.113023        -0.716710
 H         2.447806         0.842327        -1.609934
 H         4.082927        -1.033826        -0.661419
