19
Iteration:  3823
 C        -0.039591         0.144006        -0.123310
 C         1.394285         0.101229         0.198168
 C         2.027615        -0.051837         1.746563
 C         3.533626        -0.133565         1.304677
 O         4.046322         1.236586         1.260486
 C         3.343228         1.877505         0.139193
 C         2.564968         0.852132        -0.596572
 C         3.218786        -0.522603        -0.332168
 O         1.914339        -1.222553        -0.369805
 H        -0.179862         1.090011        -0.558568
 H        -0.453045        -0.623354        -0.781330
 H        -0.555161         0.222682         0.787129
 H         1.994178         0.742212         2.524961
 H         1.656881        -1.050029         2.011292
 H         4.090848        -0.777384         1.877029
 H         2.774464         2.688052         0.581813
 H         4.209240         2.259160        -0.422436
 H         2.356604         0.951458        -1.678424
 H         3.923193        -0.863944        -1.022086
