19
Iteration:  3340charge 0 multiplicity 1
 C        -0.048098         0.259472        -0.033123
 C         1.396539         0.025224         0.182916
 C         1.930340         0.180105         1.586397
 C         3.473441        -0.099901         1.253171
 O         4.107270         1.247057         1.165862
 C         3.318154         1.826211         0.139044
 C         2.622979         0.723039        -0.660465
 C         3.250073        -0.553304        -0.252119
 O         2.003381        -1.360213        -0.212472
 H        -0.571875        -0.778214        -0.070376
 H        -0.575775         0.811229         0.727965
 H        -0.336847         0.820445        -0.956745
 H         1.717649         1.063789         2.064549
 H         1.321697        -0.523496         2.191560
 H         3.996870        -0.781135         1.916059
 H         2.520938         2.425953         0.609912
 H         4.085672         2.471680        -0.394366
 H         2.305639         1.062126        -1.677002
 H         4.158042        -1.034431        -0.648951
