19
Iteration:  4449
 C        -0.142289         0.009844        -0.065410
 C         1.421283         0.015939         0.256400
 C         1.977705         0.227335         1.636506
 C         3.439320        -0.058678         1.221406
 O         4.126171         1.177636         1.160678
 C         3.483039         1.829938         0.003722
 C         2.561505         0.834809        -0.618877
 C         3.214241        -0.555128        -0.183514
 O         1.944024        -1.216923        -0.211776
 H        -0.531655         0.879646        -0.583406
 H        -0.461142        -0.855824        -0.615018
 H        -0.735994        -0.065325         0.913256
 H         1.845215         1.278877         2.108848
 H         1.448939        -0.548476         2.203855
 H         3.983244        -0.780774         1.870211
 H         2.867814         2.591786         0.519818
 H         4.246995         2.396507        -0.602020
 H         2.269567         1.115081        -1.687464
 H         4.195646        -0.969420        -0.704295
