19
Iteration:  4330charge 0 multiplicity 1
 C        -0.014300         0.284955         0.089195
 C         1.413970         0.040662         0.141641
 C         1.958347        -0.028687         1.572842
 C         3.433103        -0.059140         1.301593
 O         4.019522         1.246641         1.155708
 C         3.342361         1.910541         0.046408
 C         2.542589         0.714940        -0.598299
 C         3.300155        -0.602475        -0.203628
 O         1.999011        -1.263953        -0.280825
 H        -0.466876        -0.558326        -0.511340
 H        -0.626433         0.348846         1.079644
 H        -0.313031         1.234755        -0.552443
 H         1.846991         0.874820         2.172058
 H         1.531770        -0.799870         2.142896
 H         4.199882        -0.511804         2.001068
 H         2.710186         2.783845         0.338483
 H         4.178405         2.141776        -0.690528
 H         2.409603         0.778988        -1.755146
 H         4.222922        -1.084272        -0.811856
