19
Iteration:  3344charge 0 multiplicity 1
 C        -0.051352         0.254428        -0.031488
 C         1.464042         0.086612         0.199524
 C         1.900420         0.138426         1.587738
 C         3.496142        -0.104569         1.290236
 O         4.092178         1.239218         1.156265
 C         3.309725         1.869181         0.112520
 C         2.615383         0.731733        -0.649779
 C         3.235089        -0.572518        -0.250190
 O         1.988633        -1.397833        -0.223455
 H        -0.579025        -0.650221        -0.142509
 H        -0.503605         0.941276         0.693993
 H        -0.356476         0.720259        -0.994293
 H         1.800006         1.184662         2.075348
 H         1.258978        -0.660490         2.061483
 H         4.144209        -0.724586         1.909848
 H         2.596012         2.517896         0.648621
 H         4.001913         2.500314        -0.376097
 H         2.264953         0.893899        -1.617561
 H         4.158635        -0.969260        -0.678855
