19
Iteration:  3348
 C        -0.048016         0.266230        -0.043414
 C         1.503518         0.132662         0.193494
 C         1.888082         0.096900         1.609456
 C         3.499234        -0.096423         1.311473
 O         4.076060         1.216612         1.148722
 C         3.298208         1.907188         0.099166
 C         2.599274         0.739847        -0.623695
 C         3.235714        -0.601210        -0.231948
 O         1.982523        -1.404783        -0.232703
 H        -0.624448        -0.691080        -0.113056
 H        -0.442393         1.015581         0.722142
 H        -0.271311         0.645167        -1.039007
 H         1.848461         1.140304         2.057363
 H         1.329186        -0.719694         2.018442
 H         4.248555        -0.673197         1.928750
 H         2.623944         2.625568         0.625671
 H         3.977848         2.582329        -0.499883
 H         2.244220         0.770540        -1.753776
 H         4.126153        -0.971940        -0.767102
