19
Iteration:  3028
 C        -0.061846         0.203932        -0.057231
 C         1.433204         0.100019         0.182777
 C         1.972509         0.011550         1.615334
 C         3.472128        -0.067611         1.268662
 O         4.068728         1.173532         1.256893
 C         3.305285         1.922464         0.173068
 C         2.542855         0.823284        -0.643938
 C         3.290713        -0.541908        -0.302688
 O         1.999671        -1.360337        -0.324860
 H        -0.362589         1.094826        -0.649448
 H        -0.520346        -0.697080        -0.600505
 H        -0.650921         0.283327         0.925052
 H         1.853691         0.969745         2.157970
 H         1.523613        -0.739479         2.261756
 H         4.055069        -0.782276         1.943046
 H         2.649622         2.736437         0.560236
 H         4.026104         2.532790        -0.424759
 H         2.278364         1.122313        -1.610257
 H         4.303991        -0.896589        -0.701758
