19
Iteration:  1675
 C        -0.066823         0.027000        -0.106932
 C         1.393302         0.019539         0.158789
 C         1.988882         0.185142         1.654199
 C         3.407048        -0.081289         1.214960
 O         4.279243         1.121691         1.168904
 C         3.311736         1.870273         0.247299
 C         2.545333         0.856785        -0.499342
 C         3.195454        -0.478857        -0.266430
 O         1.941170        -1.218676        -0.328619
 H        -0.570585         1.070868         0.051506
 H        -0.259099        -0.158912        -1.282719
 H        -0.678954        -0.735429         0.277072
 H         1.830302         1.046046         2.179911
 H         1.584835        -0.625769         2.385613
 H         3.894928        -0.935494         1.733445
 H         2.675715         2.561604         0.781297
 H         3.844226         2.481453        -0.368470
 H         2.472672         1.041560        -1.607582
 H         4.093477        -0.914485        -0.817133
