19
Iteration:   517charge 0 multiplicity 1
 C        -0.077149         0.142541        -0.189349
 C         1.370747         0.041494         0.181586
 C         2.019722        -0.233985         1.669448
 C         3.510255        -0.214169         1.115937
 O         4.181574         0.996597         1.280168
 C         3.268471         1.905981         0.621670
 C         2.452979         1.037906        -0.385479
 C         3.233014        -0.278464        -0.475149
 O         2.032491        -1.088224        -0.614445
 H        -0.178336        -0.009823        -1.310384
 H        -0.627818        -0.642969         0.354197
 H        -0.631289         1.015075         0.128694
 H         1.818080         0.634173         2.339428
 H         1.720126        -1.256783         2.241152
 H         4.161607        -0.956615         1.621261
 H         2.593837         2.298065         1.401010
 H         3.970892         2.681718         0.195218
 H         2.088637         1.438627        -1.320924
 H         4.035508        -0.487376        -1.167846
