19
Iteration:  4215
 C        -0.029548         0.270228         0.138302
 C         1.466427         0.079657         0.171774
 C         1.956604         0.007071         1.606867
 C         3.465836        -0.087495         1.339646
 O         3.983374         1.270109         1.168037
 C         3.302099         1.875877         0.049619
 C         2.636512         0.715383        -0.666063
 C         3.266163        -0.588269        -0.270152
 O         1.994838        -1.287916        -0.349712
 H        -0.534142        -0.111308         1.005917
 H        -0.113487         1.381983         0.043682
 H        -0.350039        -0.112340        -0.786514
 H         1.598854         0.780125         2.293753
 H         1.489798        -0.977398         1.999499
 H         4.132898        -0.644285         2.035886
 H         2.494743         2.508728         0.427165
 H         4.083126         2.402552        -0.496550
 H         2.360877         0.943598        -1.736884
 H         4.123781        -1.093907        -0.716572
