19
Iteration:  1862
 C        -0.112489         0.012169        -0.089086
 C         1.408951         0.049460         0.206712
 C         1.942953         0.084990         1.663188
 C         3.461227        -0.087247         1.256202
 O         4.119546         1.210761         1.264797
 C         3.496824         1.862791         0.140313
 C         2.533597         0.842147        -0.528057
 C         3.190568        -0.489380        -0.315961
 O         1.928644        -1.232556        -0.374969
 H        -0.520054         0.710196         0.738025
 H        -0.478887         0.359933        -1.056546
 H        -0.460957        -1.029146         0.047698
 H         2.003072         1.035665         2.080934
 H         1.528215        -0.614947         2.440290
 H         4.061755        -0.785244         1.756762
 H         2.961547         2.822165         0.479015
 H         4.304452         2.272021        -0.667918
 H         2.359577         1.090999        -1.650157
 H         4.114502        -0.750147        -0.796588
