19
Iteration:  3507charge 0 multiplicity 1
 C        -0.008809         0.194310        -0.114710
 C         1.444961        -0.027307         0.218729
 C         1.961853        -0.068190         1.693082
 C         3.450562        -0.151029         1.221035
 O         4.080266         1.276565         1.258769
 C         3.377092         1.906972         0.098837
 C         2.573669         0.845666        -0.564610
 C         3.225093        -0.552656        -0.275558
 O         1.923339        -1.203517        -0.302250
 H        -0.208790         1.264106        -0.047359
 H        -0.205239        -0.210499        -1.177128
 H        -0.803561        -0.117187         0.625073
 H         1.939228         0.826586         2.305553
 H         1.483375        -0.882044         2.199173
 H         4.116477        -0.808092         1.877843
 H         2.598206         2.627740         0.417497
 H         4.018754         2.372456        -0.672876
 H         2.298098         0.964817        -1.651146
 H         4.119544        -0.916543        -0.890389
