19
Iteration:  4228charge 0 multiplicity 1
 C        -0.017637         0.234886        -0.025385
 C         1.439573         0.027505         0.158363
 C         1.998574        -0.056499         1.681165
 C         3.441319        -0.088837         1.285673
 O         4.095885         1.284222         1.153406
 C         3.314768         1.905697         0.058228
 C         2.541084         0.788842        -0.657692
 C         3.296508        -0.629688        -0.162479
 O         1.917703        -1.185234        -0.291859
 H        -0.490732        -0.525154         0.691853
 H        -0.441729         1.166789         0.296298
 H        -0.529251        -0.043657        -0.946657
 H         1.749017         0.721370         2.400524
 H         1.753389        -1.062415         2.000684
 H         4.077313        -0.627242         1.965842
 H         2.772312         2.762121         0.475057
 H         3.950622         2.342594        -0.725991
 H         2.478708         0.700282        -1.686840
 H         3.999884        -1.131941        -0.704709
