19
Iteration:   217charge 0 multiplicity 1
 C        -0.133481         0.029549        -0.080341
 C         1.391609         0.035488         0.098683
 C         2.046451        -0.398330         1.463400
 C         3.577647        -0.331241         0.969500
 O         4.104759         0.891165         1.436005
 C         3.245271         1.894182         0.831469
 C         2.449684         1.182719        -0.283425
 C         3.287138        -0.137420        -0.456830
 O         2.011940        -0.883080        -0.814880
 H        -0.589335        -0.443183         0.902244
 H        -0.441029         1.104075        -0.010945
 H        -0.357406        -0.443333        -1.029564
 H         1.998238         0.442115         2.329672
 H         1.765343        -1.385855         1.849628
 H         4.126207        -1.235002         1.275494
 H         2.650892         2.252780         1.658219
 H         3.838641         2.745709         0.435876
 H         2.287459         1.808997        -1.201528
 H         4.189676        -0.209284        -1.064541
