19
Iteration:  2823charge 0 multiplicity 1
 C        -0.146878         0.072459        -0.152722
 C         1.349509         0.146584         0.249703
 C         1.903134         0.114596         1.668598
 C         3.546193        -0.147388         1.234314
 O         4.192551         1.156640         1.146762
 C         3.355899         1.889725         0.124086
 C         2.562662         0.850372        -0.561483
 C         3.260930        -0.477813        -0.171893
 O         1.990838        -1.243269        -0.310780
 H        -0.564477         0.919709         0.236646
 H        -0.485069        -0.259281        -1.197389
 H        -0.621914        -0.677224         0.552437
 H         1.474026         0.920014         2.384826
 H         1.584654        -0.787195         2.191723
 H         4.131779        -0.947009         1.815713
 H         2.735088         2.762076         0.651386
 H         4.016923         2.383152        -0.660252
 H         2.502484         0.772851        -1.610901
 H         4.028256        -1.015127        -0.820640
