19
Iteration:  3082
 C        -0.012497         0.327203        -0.116408
 C         1.413797         0.040384         0.195410
 C         2.009310        -0.076772         1.601850
 C         3.513653        -0.129505         1.226774
 O         3.998643         1.280815         1.178005
 C         3.285464         1.914879         0.158217
 C         2.563004         0.790262        -0.517384
 C         3.221440        -0.608911        -0.245647
 O         2.024658        -1.295667        -0.274106
 H         0.037965         1.392850        -0.316220
 H        -0.467204        -0.210421        -0.932088
 H        -0.680232         0.105296         0.768753
 H         1.756382         0.726876         2.272442
 H         1.680336        -0.944966         2.181901
 H         4.243169        -0.767113         1.822263
 H         2.414907         2.462236         0.591422
 H         3.927654         2.506937        -0.469092
 H         2.391087         0.913851        -1.545486
 H         4.099845        -0.977030        -0.862301
