19
Iteration:  1552charge 0 multiplicity 1
 C        -0.045731         0.246286        -0.075613
 C         1.412493        -0.018568         0.174711
 C         2.011268        -0.024340         1.649385
 C         3.506164        -0.145928         1.284099
 O         4.043886         1.233209         1.223451
 C         3.383092         1.959309         0.114743
 C         2.541771         0.762841        -0.583417
 C         3.259547        -0.522974        -0.220193
 O         1.931696        -1.258432        -0.344129
 H        -0.527520         1.166351         0.238615
 H        -0.258923         0.206337        -1.201540
 H        -0.765025        -0.554272         0.484248
 H         1.894485         1.029774         2.123764
 H         1.467861        -0.803180         2.160033
 H         4.232076        -0.712550         1.864474
 H         2.793106         2.690577         0.674319
 H         4.061549         2.395954        -0.543321
 H         2.321814         0.862227        -1.578170
 H         4.054974        -0.897181        -0.808133
