19
Iteration:  1027
 C        -0.086497        -0.034613        -0.062594
 C         1.407588         0.049233         0.156242
 C         1.869616         0.040444         1.679225
 C         3.410335        -0.118821         1.269344
 O         4.152287         1.115351         1.251808
 C         3.487619         1.935379         0.160528
 C         2.655562         0.932470        -0.604685
 C         3.170036        -0.482720        -0.273314
 O         1.924130        -1.134335        -0.404338
 H        -0.517578         0.744651        -0.730157
 H        -0.435325        -1.024900        -0.254541
 H        -0.559169         0.079350         0.950434
 H         1.640761         0.892491         2.355563
 H         1.625329        -0.887624         2.175752
 H         3.893492        -0.736432         1.952179
 H         2.839826         2.747601         0.562776
 H         4.333174         2.518015        -0.334489
 H         2.720200         1.087815        -1.739174
 H         3.972284        -0.907475        -0.792404
