19
Iteration:   131charge 0 multiplicity 1
 C         0.077310         0.340269         0.168003
 C         1.472592         0.003467         0.070716
 C         2.121854        -0.640740         1.334165
 C         3.567394        -0.412825         0.962069
 O         3.918422         0.936174         1.529180
 C         2.980504         1.916360         0.826747
 C         2.432110         1.120839        -0.289503
 C         3.305026        -0.142360        -0.555939
 O         2.144422        -0.884408        -0.890628
 H        -0.254926         1.275696        -0.385812
 H        -0.653008        -0.409190        -0.213662
 H        -0.285197         0.521064         1.175083
 H         1.886201        -0.077368         2.300089
 H         1.853404        -1.660401         1.485155
 H         4.284136        -1.168575         1.307846
 H         2.360768         2.365434         1.594222
 H         3.671098         2.795664         0.427660
 H         2.264347         1.590341        -1.212097
 H         4.094820        -0.217321        -1.298383
