19
Iteration:  2417
 C        -0.013028         0.445830        -0.045154
 C         1.434129        -0.014243         0.161819
 C         2.055099        -0.157004         1.696973
 C         3.469044        -0.098519         1.268936
 O         3.915657         1.294791         1.248248
 C         3.300898         1.890077         0.038743
 C         2.538416         0.736996        -0.598076
 C         3.257052        -0.555819        -0.311421
 O         2.059569        -1.309773        -0.291965
 H        -0.019915         1.569030        -0.186204
 H        -0.410962         0.105699        -0.942785
 H        -0.580684         0.197187         0.842702
 H         1.894511         0.576939         2.421601
 H         1.645412        -1.064186         2.220555
 H         4.175573        -0.664489         1.919641
 H         2.642402         2.548974         0.419324
 H         4.047186         2.334211        -0.642189
 H         2.092416         0.928759        -1.683283
 H         4.115778        -1.199728        -0.605020
