19
Iteration:  4146charge 0 multiplicity 1
 C        -0.092448         0.139384        -0.156582
 C         1.437452         0.076117         0.281558
 C         2.033854        -0.053697         1.728392
 C         3.495616        -0.162237         1.296640
 O         4.128480         1.178125         1.078194
 C         3.287111         1.975520         0.138449
 C         2.587452         0.867639        -0.600481
 C         3.225469        -0.561707        -0.189351
 O         1.925433        -1.178599        -0.309314
 H        -0.739113         0.492997         0.618224
 H        -0.043618         0.942964        -0.877478
 H        -0.347759        -0.848040        -0.558695
 H         2.035859         0.698632         2.573724
 H         1.450683        -0.958067         2.129704
 H         4.191823        -0.702507         1.901379
 H         2.505986         2.578701         0.599862
 H         3.952712         2.500719        -0.540094
 H         2.179803         1.024281        -1.647725
 H         3.965917        -1.029156        -0.877422
