19
Iteration:  1537
 C        -0.065432         0.153320        -0.139320
 C         1.408195         0.044404         0.237263
 C         1.926495         0.085656         1.668922
 C         3.484171        -0.114531         1.213094
 O         4.133153         1.119626         1.162434
 C         3.293835         1.825893         0.218050
 C         2.509821         0.873461        -0.558923
 C         3.220705        -0.495597        -0.252979
 O         2.041960        -1.236183        -0.314900
 H        -0.185527         1.256912        -0.056882
 H        -0.234527        -0.226069        -1.096844
 H        -0.642683        -0.488781         0.545309
 H         1.786705         1.088608         2.144725
 H         1.575047        -0.543488         2.487219
 H         4.103402        -0.840183         1.784270
 H         2.712250         2.681562         0.547296
 H         4.058342         2.381706        -0.463497
 H         2.314192         1.153434        -1.665427
 H         4.085333        -1.011922        -0.812432
