19
Iteration:  3341
 C        -0.048111         0.259389        -0.029920
 C         1.412857         0.040237         0.188526
 C         1.922440         0.173306         1.586069
 C         3.481240        -0.103086         1.263170
 O         4.103807         1.247267         1.163181
 C         3.315787         1.835913         0.132379
 C         2.622063         0.724956        -0.660269
 C         3.245217        -0.556443        -0.253089
 O         1.999387        -1.371679        -0.215200
 H        -0.579643        -0.755008        -0.092121
 H        -0.553190         0.834799         0.698670
 H        -0.352287         0.802864        -0.969989
 H         1.739470         1.072457         2.058868
 H         1.290511        -0.560576         2.158145
 H         4.025880        -0.762212         1.906642
 H         2.542009         2.440849         0.623098
 H         4.071677         2.477010        -0.381137
 H         2.297244         1.021034        -1.635839
 H         4.162602        -1.014587        -0.649482
