19
Iteration:  1043charge 0 multiplicity 1
 C        -0.166063         0.052291        -0.057752
 C         1.404825         0.123770         0.176465
 C         1.948851         0.026649         1.588664
 C         3.429669        -0.154226         1.262149
 O         4.084837         1.108114         1.187984
 C         3.459684         1.939882         0.192446
 C         2.578665         0.884010        -0.557204
 C         3.264675        -0.470604        -0.188725
 O         2.003445        -1.165158        -0.375080
 H        -0.401098         0.854445        -0.749706
 H        -0.173311        -0.954561        -0.584636
 H        -0.785136        -0.012604         0.845375
 H         1.827781         0.952428         2.175694
 H         1.296101        -0.837996         2.150922
 H         3.984749        -0.947186         1.889598
 H         2.927159         2.753473         0.731323
 H         4.206509         2.226141        -0.537075
 H         2.227661         1.049083        -1.560354
 H         4.142185        -0.923669        -0.754398
