19
Iteration:  2444charge 0 multiplicity 1
 C        -0.018807         0.334019         0.072378
 C         1.437784         0.044634         0.147992
 C         1.965744        -0.090342         1.622432
 C         3.465104        -0.094837         1.258819
 O         3.912566         1.264129         1.173834
 C         3.321750         1.877831         0.038637
 C         2.625841         0.722997        -0.570441
 C         3.310833        -0.587913        -0.231556
 O         2.008272        -1.237314        -0.319921
 H        -0.072654         1.388803         0.316383
 H        -0.207293         0.290836        -1.071270
 H        -0.718869        -0.281980         0.703462
 H         1.670256         0.700177         2.480888
 H         1.554083        -1.038261         1.923805
 H         4.139295        -0.563617         1.961948
 H         2.616647         2.699532         0.493800
 H         4.020640         2.344400        -0.661463
 H         2.550112         0.769677        -1.604244
 H         4.118751        -1.152906        -0.660682
