19
Iteration:  1680
 C        -0.096094         0.045865        -0.129598
 C         1.382496         0.003695         0.174816
 C         1.972848         0.175007         1.624541
 C         3.436276        -0.121876         1.166350
 O         4.239847         1.146984         1.187391
 C         3.355949         1.870604         0.285366
 C         2.510818         0.831031        -0.519003
 C         3.194428        -0.479099        -0.253030
 O         1.978440        -1.193460        -0.325970
 H        -0.457585         1.014498         0.027618
 H        -0.258500        -0.246041        -1.087648
 H        -0.711078        -0.716348         0.498954
 H         1.752476         1.236277         2.122273
 H         1.744984        -0.547862         2.366379
 H         3.920414        -0.942118         1.669760
 H         2.692010         2.572092         0.877470
 H         4.034591         2.427209        -0.537544
 H         2.427084         1.126036        -1.609546
 H         3.993883        -1.019797        -0.697502
