19
Iteration:  2082
 C         0.071245         0.441025        -0.083398
 C         1.450358         0.010601         0.234596
 C         2.039244        -0.023248         1.602391
 C         3.466150        -0.070735         1.212835
 O         3.952161         1.189584         1.171331
 C         3.142816         1.837089         0.207964
 C         2.551597         0.696192        -0.598322
 C         3.301006        -0.543799        -0.256081
 O         2.028030        -1.309245        -0.271308
 H        -0.290477         1.127160         0.710995
 H         0.110178         0.979947        -0.970445
 H        -0.617877        -0.446847        -0.253491
 H         1.831163         0.861657         2.315539
 H         1.689218        -0.977405         2.116523
 H         4.249511        -0.608729         1.813424
 H         2.545857         2.655572         0.605042
 H         3.899144         2.338003        -0.525195
 H         2.158745         0.777905        -1.629075
 H         4.176149        -0.902574        -0.814835
