19
Iteration:  2706charge 0 multiplicity 1
 C        -0.126062         0.176453        -0.034723
 C         1.400555         0.052335         0.188097
 C         2.013162         0.064137         1.670619
 C         3.439825        -0.135892         1.221045
 O         4.028308         1.225239         1.234501
 C         3.380651         1.853758         0.073743
 C         2.604894         0.777551        -0.631483
 C         3.282899        -0.479974        -0.229289
 O         1.997673        -1.245308        -0.299133
 H        -0.582812         0.871201         0.689456
 H        -0.590000         0.254510        -1.070380
 H        -0.638461        -0.757478         0.170629
 H         1.866985         1.084345         2.122072
 H         1.615679        -0.690155         2.340371
 H         4.038680        -0.948522         1.708601
 H         2.840332         2.677813         0.518296
 H         4.141826         2.289941        -0.563577
 H         2.443670         0.874270        -1.787801
 H         4.204559        -0.970257        -0.581700
