19
Iteration:   289
 C        -0.043433         0.379287         0.127792
 C         1.473260         0.033664         0.174213
 C         2.041871        -0.665848         1.480717
 C         3.529082        -0.261757         1.012295
 O         3.903227         1.062716         1.540023
 C         3.171910         1.884789         0.657723
 C         2.465772         1.030538        -0.380994
 C         3.335528        -0.191112        -0.569392
 O         2.123594        -1.021677        -0.833773
 H        -0.344025         0.095650        -0.896468
 H        -0.584810        -0.216409         0.852910
 H        -0.115505         1.454532         0.212313
 H         1.933299        -0.097302         2.334126
 H         1.711580        -1.672941         1.585744
 H         4.262923        -0.973675         1.296905
 H         2.516270         2.572029         1.273187
 H         4.007703         2.534161         0.285043
 H         2.150524         1.577143        -1.337350
 H         4.050521        -0.380130        -1.335223
