19
Iteration:  4063
 C        -0.048004         0.259741        -0.027715
 C         1.485207         0.086199         0.213241
 C         1.985062        -0.147974         1.660022
 C         3.526622        -0.134696         1.269577
 O         3.994783         1.211063         1.220253
 C         3.332762         1.953871         0.132410
 C         2.602182         0.827544        -0.615409
 C         3.199072        -0.559383        -0.259715
 O         1.967033        -1.197476        -0.364809
 H        -0.479298         1.299041        -0.038396
 H        -0.339200        -0.492176        -0.893508
 H        -0.558463        -0.261459         0.792868
 H         1.756357         0.601484         2.348576
 H         1.705945        -1.191103         1.893981
 H         4.251583        -0.759123         1.911511
 H         2.633822         2.742689         0.519980
 H         4.061274         2.599102        -0.401769
 H         2.360970         1.031912        -1.740090
 H         3.929519        -1.144087        -0.941764
