19
Iteration:   216
 C        -0.138626         0.024748        -0.089971
 C         1.396229         0.027222         0.097995
 C         2.042815        -0.396748         1.469568
 C         3.582890        -0.340557         0.971616
 O         4.106640         0.893396         1.435418
 C         3.248259         1.899051         0.820579
 C         2.455502         1.178490        -0.274047
 C         3.283685        -0.126382        -0.460831
 O         2.009740        -0.876796        -0.810909
 H        -0.579940        -0.423470         0.913814
 H        -0.422720         1.095590        -0.043973
 H        -0.375979        -0.466434        -0.991280
 H         1.993725         0.436691         2.332959
 H         1.746470        -1.370116         1.838650
 H         4.117067        -1.242227         1.237283
 H         2.638755         2.250515         1.666767
 H         3.847057         2.704616         0.467346
 H         2.250289         1.855030        -1.207891
 H         4.182325        -0.229648        -1.032929
