19
Iteration:    53charge 0 multiplicity 1
 C        -0.071626        -0.046746        -0.065017
 C         1.397355         0.083543         0.145565
 C         2.046159        -0.519572         1.428899
 C         3.525747        -0.397438         0.959441
 O         4.121140         0.769592         1.522952
 C         3.259139         1.942220         0.933363
 C         2.397010         1.299152        -0.195937
 C         3.245371        -0.046468        -0.542239
 O         2.064461        -0.751051        -0.961066
 H        -0.527013        -1.154625         0.055867
 H        -0.720811         0.643084         0.471360
 H        -0.316570         0.230172        -1.074344
 H         1.958030         0.072582         2.429798
 H         1.650130        -1.479319         1.541658
 H         4.132290        -1.266351         1.163535
 H         2.792121         2.350452         1.844715
 H         4.131371         2.645976         0.449935
 H         1.987931         1.973850        -1.015131
 H         4.063998        -0.018372        -1.231762
