19
Iteration:   351charge 0 multiplicity 1
 C        -0.115249         0.030623        -0.077486
 C         1.387149         0.058584         0.079469
 C         2.048497        -0.331075         1.491758
 C         3.517765        -0.274531         1.090277
 O         4.157025         0.922929         1.358519
 C         3.287295         1.944475         0.774577
 C         2.432092         1.184558        -0.374622
 C         3.292618        -0.262698        -0.456215
 O         2.003755        -0.943505        -0.705029
 H        -0.464804         1.001905        -0.311852
 H        -0.518086        -0.560355        -0.929742
 H        -0.740204        -0.337968         0.884723
 H         1.991493         0.387801         2.361305
 H         1.597084        -1.376287         1.883384
 H         4.184287        -1.079465         1.477153
 H         2.600063         2.310556         1.523324
 H         3.919850         2.731477         0.265285
 H         2.208476         1.679111        -1.215217
 H         4.159450        -0.558382        -1.132427
