19
Iteration:  2670charge 0 multiplicity 1
 C        -0.079677         0.042611        -0.086046
 C         1.396187         0.064244         0.152541
 C         1.958447         0.169326         1.634888
 C         3.405654        -0.070329         1.245342
 O         4.251151         1.142859         1.102840
 C         3.352118         1.888722         0.212757
 C         2.561873         0.798783        -0.591037
 C         3.217430        -0.511182        -0.140745
 O         1.910265        -1.207581        -0.319796
 H        -0.614511         0.722458         0.529525
 H        -0.340384         0.237011        -1.144891
 H        -0.157523        -1.027090         0.310286
 H         1.540319         1.087397         2.083874
 H         1.766651        -0.676654         2.208136
 H         3.952833        -0.811612         1.845946
 H         2.757977         2.540990         0.739462
 H         3.911398         2.381415        -0.529784
 H         2.384892         0.946827        -1.591144
 H         4.180264        -0.885790        -0.509629
