19
Iteration:   401
 C        -0.074817         0.183928        -0.069973
 C         1.409646         0.019235         0.139557
 C         2.085658        -0.382089         1.531558
 C         3.546059        -0.329833         1.114029
 O         4.052476         1.031595         1.366385
 C         3.233485         1.967043         0.649651
 C         2.500894         1.074215        -0.337767
 C         3.258581        -0.305182        -0.432379
 O         2.017226        -0.984018        -0.698817
 H        -0.690642         0.506399         0.830429
 H        -0.344418         0.988431        -0.787802
 H        -0.449986        -0.708159        -0.449392
 H         1.764230         0.285734         2.339196
 H         1.852822        -1.350726         1.746558
 H         4.231636        -1.171347         1.446788
 H         2.521435         2.547101         1.296289
 H         3.902996         2.532555         0.039732
 H         2.298055         1.497214        -1.457661
 H         3.994295        -0.549510        -1.219068
