19
Iteration:   623
 C         0.024399         0.421466         0.026226
 C         1.479095        -0.031698         0.167436
 C         2.026700        -0.415378         1.557428
 C         3.568202        -0.264539         1.168955
 O         3.884288         1.130546         1.356928
 C         3.185159         1.967627         0.373119
 C         2.500860         0.934813        -0.503919
 C         3.324263        -0.367268        -0.385054
 O         2.058685        -1.112347        -0.564073
 H        -0.524377         0.611802         0.929676
 H        -0.052108         1.313776        -0.595458
 H        -0.586702        -0.509547        -0.440872
 H         1.780893         0.329275         2.273844
 H         1.623386        -1.320411         1.798808
 H         4.371371        -0.920119         1.637406
 H         2.566405         2.587822         1.084010
 H         3.963878         2.525597        -0.109536
 H         2.066354         0.949428        -1.452638
 H         4.105405        -0.734592        -1.059042
