19
Iteration:  1884
 C        -0.101775         0.194703         0.034208
 C         1.429976         0.053912         0.189192
 C         1.971628        -0.033221         1.583710
 C         3.446888        -0.140182         1.316101
 O         4.024770         1.212665         1.182517
 C         3.350439         1.897179         0.098558
 C         2.586160         0.806135        -0.582456
 C         3.286052        -0.558840        -0.231821
 O         2.008555        -1.166418        -0.353510
 H        -0.560828         1.112869         0.523769
 H        -0.227971         0.275672        -1.027084
 H        -0.581112        -0.751653         0.328342
 H         1.720643         0.714358         2.286991
 H         1.666891        -1.054336         1.934433
 H         4.031275        -0.693927         1.998989
 H         2.834509         2.819433         0.550782
 H         4.154757         2.389132        -0.628305
 H         2.442944         0.917141        -1.719766
 H         4.059226        -1.038950        -0.795148
