19
Iteration:  3858
 C        -0.009310         0.394671        -0.069573
 C         1.456894         0.010705         0.143336
 C         1.956076        -0.072357         1.633774
 C         3.470434        -0.169234         1.264062
 O         4.034797         1.194997         1.111788
 C         3.174419         1.987726         0.226399
 C         2.541134         0.757265        -0.578274
 C         3.285895        -0.576837        -0.227338
 O         2.064706        -1.350048        -0.319460
 H         0.132290         1.483682         0.146064
 H        -0.587510         0.313433        -0.954225
 H        -0.604259         0.043840         0.747312
 H         1.907572         0.762837         2.446882
 H         1.568359        -0.907551         2.168440
 H         4.309913        -0.543048         1.902658
 H         2.440374         2.665113         0.681919
 H         3.775223         2.662919        -0.444104
 H         2.479831         0.959638        -1.666736
 H         4.186116        -0.893452        -0.812994
