19
Iteration:  3168
 C        -0.062336         0.153090        -0.137810
 C         1.407056         0.095460         0.283062
 C         1.954439         0.071176         1.656689
 C         3.462266        -0.135286         1.281784
 O         4.083306         1.180469         1.138665
 C         3.383153         1.900164         0.111960
 C         2.505681         0.837740        -0.564779
 C         3.281027        -0.590886        -0.289498
 O         1.992000        -1.246874        -0.220894
 H        -0.909567         0.269795         0.577264
 H        -0.217256         0.872857        -0.899611
 H        -0.139357        -0.832003        -0.703681
 H         1.679037         1.092241         2.011517
 H         1.440203        -0.761363         2.327328
 H         4.140552        -0.688401         2.009076
 H         2.926605         2.843776         0.534076
 H         4.107793         2.324052        -0.570101
 H         2.193299         1.157192        -1.589591
 H         4.106427        -1.132123        -0.864805
