19
Iteration:  2294
 C        -0.048366         0.227119        -0.045878
 C         1.446297         0.051026         0.169395
 C         1.979691        -0.038584         1.642730
 C         3.486506        -0.030808         1.297770
 O         4.004424         1.248166         1.222399
 C         3.408684         1.902644         0.048114
 C         2.562413         0.804577        -0.572968
 C         3.245934        -0.602795        -0.267147
 O         1.936792        -1.275012        -0.262941
 H        -0.381259         0.803279         0.801649
 H        -0.356764         0.832106        -0.967397
 H        -0.540989        -0.727606        -0.089779
 H         1.475986         0.560805         2.391859
 H         1.641738        -1.092476         1.848766
 H         4.279025        -0.607730         1.738129
 H         2.937373         2.777940         0.353903
 H         4.289340         2.206395        -0.601316
 H         2.337157         1.098011        -1.651662
 H         3.988685        -1.114824        -0.827499
