19
Iteration:  1137
 C        -0.012365         0.309366        -0.042962
 C         1.410796        -0.006540         0.163483
 C         1.926182        -0.002494         1.591974
 C         3.455698        -0.129736         1.256829
 O         4.019577         1.240822         1.212191
 C         3.316227         1.929388         0.144199
 C         2.586452         0.769590        -0.502010
 C         3.252421        -0.614051        -0.275450
 O         2.054847        -1.285264        -0.319705
 H        -0.205581         0.953661         0.880258
 H        -0.325331         0.817588        -1.042350
 H        -0.708059        -0.581889         0.041804
 H         1.721867         0.926468         2.074058
 H         1.468744        -0.721353         2.110009
 H         4.241631        -0.554256         1.848030
 H         2.644552         2.707022         0.399553
 H         4.132530         2.259395        -0.539038
 H         2.183344         0.852334        -1.566090
 H         4.138865        -0.956726        -0.909690
