19
Iteration:  4743charge 0 multiplicity 1
 C        -0.141748         0.094050         0.050200
 C         1.337992         0.070994         0.185254
 C         1.938628         0.321199         1.594933
 C         3.415689        -0.044825         1.286783
 O         4.087283         1.198495         1.095155
 C         3.420893         1.853131        -0.062489
 C         2.656366         0.705474        -0.616769
 C         3.225602        -0.636511        -0.203411
 O         2.020794        -1.302529        -0.143915
 H        -0.572286        -0.815459        -0.392313
 H        -0.532474         0.238602         1.115358
 H        -0.428411         1.019479        -0.592804
 H         1.904161         1.363642         2.012456
 H         1.627375        -0.286007         2.451641
 H         3.969468        -0.661452         1.861953
 H         2.951559         2.700682         0.400801
 H         4.142414         2.093584        -0.859868
 H         2.628850         0.789595        -1.712036
 H         4.044731        -1.081296        -0.711069
