19
Iteration:  3045charge 0 multiplicity 1
 C        -0.043991         0.274168        -0.118255
 C         1.453877        -0.011502         0.217760
 C         1.959965        -0.037835         1.659614
 C         3.501753        -0.176420         1.257190
 O         4.020363         1.239934         1.126097
 C         3.268660         1.894793         0.157737
 C         2.541659         0.751938        -0.495581
 C         3.261457        -0.543529        -0.201738
 O         2.041086        -1.183961        -0.310220
 H        -0.217433         1.191083        -0.740552
 H        -0.418065        -0.442947        -0.804122
 H        -0.658125         0.454988         0.719559
 H         1.855522         0.875898         2.274391
 H         1.725215        -1.062880         2.081725
 H         4.240401        -0.735564         1.799057
 H         2.556216         2.657710         0.559960
 H         3.890399         2.540997        -0.539204
 H         2.465685         0.853229        -1.671214
 H         3.963765        -0.985985        -0.843210
