19
Iteration:  4905charge 0 multiplicity 1
 C        -0.118530         0.119456        -0.098859
 C         1.395480         0.052480         0.270868
 C         1.979905         0.280910         1.708531
 C         3.448723         0.032457         1.247013
 O         4.119780         1.198008         1.055029
 C         3.437751         1.776493        -0.094745
 C         2.515226         0.721294        -0.685770
 C         3.202475        -0.603047        -0.117074
 O         1.965030        -1.288020        -0.042253
 H        -0.091784        -0.095519        -1.127779
 H        -0.568783        -0.746614         0.339545
 H        -0.741179         1.057077         0.021896
 H         2.127676         1.306791         2.108053
 H         1.719948        -0.357286         2.492618
 H         4.128013        -0.497415         1.904549
 H         2.920702         2.639877         0.320220
 H         4.191475         1.978824        -0.903691
 H         2.401211         0.694898        -1.791286
 H         3.926780        -1.038809        -0.712707
