19
Iteration:  4041charge 0 multiplicity 1
 C        -0.037369         0.405852        -0.120703
 C         1.412691        -0.038421         0.292054
 C         2.073676        -0.115730         1.688210
 C         3.494536        -0.148874         1.159490
 O         3.951736         1.210893         1.252671
 C         3.249638         1.863323         0.156308
 C         2.493012         0.833668        -0.544130
 C         3.312942        -0.461035        -0.303134
 O         2.023061        -1.308256        -0.322112
 H         0.244366         1.471850        -0.279549
 H        -0.336412        -0.318630        -0.999283
 H        -0.802781         0.380665         0.652759
 H         2.061621         0.659957         2.365241
 H         1.791382        -1.113530         2.087981
 H         4.224476        -0.818230         1.742841
 H         2.696867         2.756070         0.522117
 H         3.883367         2.372507        -0.600110
 H         2.215554         0.995813        -1.675927
 H         4.136313        -0.836318        -1.028965
