19
Iteration:  1560
 C        -0.089177         0.273382        -0.059477
 C         1.447216         0.018459         0.208935
 C         2.021828        -0.032801         1.609416
 C         3.455303        -0.153280         1.282603
 O         4.022154         1.273862         1.237310
 C         3.363960         1.946515         0.089704
 C         2.586739         0.755543        -0.557111
 C         3.298488        -0.573216        -0.243367
 O         1.920493        -1.259664        -0.343219
 H        -0.282200         1.210669         0.481109
 H        -0.307498         0.340138        -1.087581
 H        -0.642953        -0.672943         0.292114
 H         1.716994         0.694046         2.415552
 H         1.714509        -0.949408         2.055295
 H         4.093057        -0.689903         2.010141
 H         2.703961         2.787165         0.319977
 H         4.125266         2.473797        -0.580964
 H         2.401946         0.811066        -1.638570
 H         4.086407        -0.983893        -0.932153
