19
Iteration:   431
 C        -0.020715         0.330663         0.126370
 C         1.499574         0.019506         0.138090
 C         2.047502        -0.484808         1.527316
 C         3.471309        -0.320141         1.141136
 O         3.879962         1.055357         1.470643
 C         3.210764         1.924873         0.491561
 C         2.526250         1.047307        -0.488366
 C         3.293018        -0.288089        -0.481687
 O         2.108864        -1.024135        -0.704833
 H        -0.606345         0.012518         1.098094
 H        -0.151373         1.458289         0.067306
 H        -0.411562        -0.134662        -0.784798
 H         1.612683         0.013460         2.394177
 H         1.892073        -1.625995         1.534560
 H         4.331225        -0.900302         1.476289
 H         2.487765         2.639140         0.833428
 H         4.044675         2.585800        -0.003521
 H         2.307731         1.384823        -1.572703
 H         4.044703        -0.619526        -1.145889
