19
Iteration:  3250charge 0 multiplicity 1
 C        -0.002885         0.301178        -0.058632
 C         1.419804         0.040770         0.253975
 C         1.944073         0.111435         1.647139
 C         3.464167        -0.032748         1.280817
 O         3.981505         1.236108         1.220539
 C         3.323553         1.858557         0.011606
 C         2.574450         0.629277        -0.604138
 C         3.288577        -0.619275        -0.260566
 O         2.036124        -1.299553        -0.265608
 H        -0.671269        -0.615935        -0.151638
 H        -0.334650         1.029187         0.803435
 H        -0.233967         0.819954        -0.988057
 H         1.733691         1.075428         2.226881
 H         1.517444        -0.727885         2.192001
 H         4.139093        -0.619341         1.952181
 H         2.578242         2.674080         0.223944
 H         4.222670         2.211981        -0.628193
 H         2.250867         0.850809        -1.708606
 H         4.082472        -1.095629        -0.831808
