19
Iteration:  3918
 C        -0.088662         0.113532        -0.094754
 C         1.354301         0.088734         0.253542
 C         1.962460        -0.082988         1.698152
 C         3.481445        -0.074906         1.237850
 O         4.086915         1.176659         1.181173
 C         3.442272         1.910767         0.081248
 C         2.563660         0.844320        -0.613167
 C         3.227657        -0.514754        -0.231056
 O         1.949965        -1.143124        -0.278684
 H        -0.655324         0.499438         0.738247
 H        -0.122354         0.719883        -1.044549
 H        -0.259532        -0.984596        -0.288618
 H         1.720389         0.669311         2.329800
 H         1.696588        -1.111657         2.016666
 H         4.063397        -0.649891         1.898606
 H         2.855921         2.736752         0.543583
 H         4.207625         2.283580        -0.579513
 H         2.278860         0.924121        -1.663525
 H         4.010958        -0.970191        -0.762325
