19
Iteration:  2076charge 0 multiplicity 1
 C         0.074021         0.395620        -0.083743
 C         1.466033         0.010883         0.213625
 C         2.021790        -0.023089         1.632077
 C         3.483056        -0.100878         1.261669
 O         3.980973         1.218276         1.181721
 C         3.192239         1.903512         0.152273
 C         2.519546         0.722567        -0.586582
 C         3.290418        -0.585390        -0.236840
 O         2.000664        -1.302783        -0.293472
 H        -0.324122         1.015447         0.736324
 H         0.081072         1.054528        -1.034415
 H        -0.572112        -0.436620        -0.273714
 H         1.719095         0.830510         2.181489
 H         1.727919        -0.908930         2.125827
 H         4.211682        -0.829417         1.682251
 H         2.472576         2.562765         0.714898
 H         3.825550         2.426791        -0.500735
 H         2.146030         0.760368        -1.594387
 H         4.146815        -0.943972        -0.869358
