19
Iteration:  3846charge 0 multiplicity 1
 C         0.000235         0.392380        -0.067775
 C         1.419796         0.013102         0.219103
 C         1.974358        -0.136714         1.653415
 C         3.505448        -0.113356         1.206914
 O         4.010950         1.210136         1.122034
 C         3.202791         1.924315         0.163765
 C         2.578868         0.801860        -0.547373
 C         3.308628        -0.580972        -0.193939
 O         2.031524        -1.233587        -0.329225
 H        -0.237395         1.434125        -0.267743
 H        -0.244350        -0.240450        -0.917629
 H        -0.559346         0.062052         0.751518
 H         1.662958         0.808649         2.244581
 H         1.695915        -1.100721         2.026779
 H         4.002336        -0.808603         1.841606
 H         2.544400         2.517766         0.787359
 H         3.964930         2.547552        -0.360607
 H         2.282907         0.725533        -1.611696
 H         4.035400        -1.114172        -0.783764
