19
Iteration:  4772
 C        -0.087720        -0.035401        -0.044805
 C         1.341372         0.074634         0.176500
 C         1.982040         0.364851         1.626322
 C         3.412593         0.023704         1.359510
 O         4.245051         1.139003         1.034749
 C         3.436803         1.883817         0.011288
 C         2.555039         0.709654        -0.679929
 C         3.139792        -0.582130        -0.171445
 O         1.910036        -1.263634        -0.101071
 H        -0.341705        -0.805968        -0.849333
 H        -0.554321        -0.257352         0.855645
 H        -0.535554         0.941906        -0.330667
 H         1.799464         1.357077         2.088969
 H         1.658993        -0.336089         2.384303
 H         4.027270        -0.743493         2.079425
 H         3.091839         2.821986         0.518620
 H         4.183420         2.183306        -0.827142
 H         2.556514         0.758985        -1.837422
 H         3.979142        -1.133080        -0.741177
