19
Iteration:  2508charge 0 multiplicity 1
 C        -0.042878         0.054589        -0.159117
 C         1.377266         0.028676         0.234323
 C         1.922572         0.134019         1.681167
 C         3.455326        -0.095635         1.253108
 O         4.248646         1.112485         1.066715
 C         3.389283         1.979583         0.185833
 C         2.555973         0.851892        -0.583225
 C         3.158822        -0.487229        -0.216337
 O         1.916216        -1.254072        -0.224967
 H        -0.735235         0.633568         0.279950
 H        -0.113035         0.322299        -1.216149
 H        -0.408515        -0.986231         0.006259
 H         1.866150         0.942341         2.509226
 H         1.376812        -0.629142         2.084848
 H         4.172799        -0.682307         1.818950
 H         2.798797         2.538415         0.806649
 H         3.940296         2.557986        -0.479675
 H         2.434030         0.989454        -1.597894
 H         3.943515        -0.948932        -0.821494
