19
Iteration:   784charge 0 multiplicity 1
 C         0.003849         0.466559        -0.030574
 C         1.469261         0.029976         0.105399
 C         2.036243        -0.260557         1.658537
 C         3.512277        -0.221610         1.270613
 O         3.981575         1.195654         1.255088
 C         3.065064         1.936800         0.390539
 C         2.601767         0.859949        -0.577207
 C         3.263374        -0.512004        -0.356502
 O         2.086437        -1.243890        -0.530830
 H        -0.138944         1.389317        -0.512106
 H        -0.545368        -0.336668        -0.481517
 H        -0.522210         0.528624         0.949117
 H         1.820181         0.511902         2.618873
 H         1.754648        -1.250032         1.978532
 H         4.233055        -0.997258         1.666891
 H         2.262385         2.442892         0.941283
 H         3.783556         2.603187        -0.158042
 H         2.364708         1.074232        -1.572543
 H         4.186633        -0.723159        -0.950023
