19
Iteration:   802
 C         0.022270         0.364376        -0.040439
 C         1.438161        -0.002980         0.198903
 C         2.002319        -0.209923         1.548431
 C         3.509291        -0.180144         1.179597
 O         4.035101         1.139847         1.221668
 C         3.118473         1.899894         0.363068
 C         2.550034         0.851233        -0.502196
 C         3.363962        -0.444391        -0.312525
 O         1.992690        -1.159475        -0.455731
 H         0.233067         1.472460        -0.232544
 H        -0.265505        -0.243507        -0.997191
 H        -0.605048         0.028603         0.751424
 H         1.730958         0.444984         2.255341
 H         1.586928        -1.206096         1.829502
 H         4.169119        -0.627276         1.824155
 H         2.215245         2.254551         0.984237
 H         3.664556         2.803898         0.087841
 H         2.358488         1.142279        -1.547949
 H         4.121632        -1.030130        -0.826536
