19
Iteration:  2712charge 0 multiplicity 1
 C        -0.106113         0.192216        -0.017447
 C         1.411568         0.031039         0.218421
 C         2.010015         0.077142         1.658641
 C         3.488437        -0.080232         1.223683
 O         3.992212         1.216576         1.247534
 C         3.382938         1.863745         0.069468
 C         2.517198         0.737697        -0.617527
 C         3.320152        -0.490162        -0.208472
 O         1.987167        -1.255701        -0.349464
 H        -0.490261         1.062359         0.541518
 H        -0.247763         0.422458        -1.083999
 H        -0.768025        -0.716060         0.219800
 H         1.941643         1.012071         2.207118
 H         1.532734        -0.844204         2.121139
 H         4.129473        -0.792052         1.725875
 H         2.830401         2.753536         0.525168
 H         4.231414         2.188636        -0.595095
 H         2.454875         0.671071        -1.645152
 H         4.128822        -1.044647        -0.697693
