19
Iteration:  3330charge 0 multiplicity 1
 C        -0.111219         0.222949        -0.046925
 C         1.381113        -0.043123         0.144125
 C         1.964870         0.200954         1.600609
 C         3.399706        -0.046837         1.227284
 O         4.123463         1.173335         1.192378
 C         3.328113         1.817628         0.156352
 C         2.586849         0.745028        -0.666209
 C         3.286559        -0.573645        -0.220230
 O         2.024306        -1.242085        -0.198939
 H        -0.601851        -0.812656        -0.163692
 H        -0.432247         0.624386         0.871517
 H        -0.251167         0.816327        -0.978473
 H         1.838073         1.187490         1.891077
 H         1.772496        -0.545756         2.419045
 H         3.891227        -0.727354         1.892659
 H         2.579855         2.528132         0.522922
 H         3.915720         2.431808        -0.573455
 H         2.565012         0.946744        -1.736532
 H         4.035939        -1.164525        -0.770164
