19
Iteration:  4549
 C         0.002671         0.344548        -0.032240
 C         1.459823         0.013323         0.230900
 C         1.918063         0.011689         1.633261
 C         3.524607        -0.001890         1.395457
 O         4.065083         1.236617         1.001207
 C         3.226759         1.891730        -0.069720
 C         2.634001         0.661999        -0.647656
 C         3.294603        -0.630790        -0.123631
 O         1.919303        -1.302709        -0.172709
 H        -0.420160         0.739091         0.816301
 H        -0.128020         1.140759        -0.790677
 H        -0.559552        -0.534201        -0.395210
 H         1.603912         0.945411         2.145871
 H         1.704480        -0.883302         2.229422
 H         4.273158        -0.434452         1.969732
 H         2.435656         2.476170         0.433258
 H         3.848342         2.688558        -0.524585
 H         2.328748         0.803860        -1.712691
 H         4.144328        -1.314080        -0.458651
