19
Iteration:  2561charge 0 multiplicity 1
 C        -0.007532         0.323934         0.023138
 C         1.437709         0.013360         0.203538
 C         1.963966        -0.044572         1.589536
 C         3.410787        -0.039032         1.200134
 O         3.981447         1.248451         1.241190
 C         3.334518         1.845309         0.097106
 C         2.580278         0.742509        -0.624082
 C         3.305309        -0.569028        -0.303250
 O         2.032275        -1.305740        -0.273230
 H        -0.145704         1.350606         0.284590
 H        -0.451199         0.133037        -0.976869
 H        -0.657477        -0.188522         0.821931
 H         1.670369         0.882804         2.151870
 H         1.666802        -0.859915         2.178937
 H         4.091535        -0.584316         1.858519
 H         2.547514         2.678424         0.514141
 H         3.943745         2.335061        -0.641875
 H         2.311925         1.018348        -1.591037
 H         4.210650        -1.061427        -0.714967
