19
Iteration:  3955
 C        -0.098003         0.027093        -0.024474
 C         1.386388        -0.014719         0.231452
 C         2.015192         0.042783         1.605569
 C         3.443172        -0.061737         1.243885
 O         4.066131         1.105960         1.217748
 C         3.475176         1.895779         0.142581
 C         2.505992         0.885273        -0.585050
 C         3.199862        -0.452816        -0.237803
 O         2.004215        -1.167950        -0.364343
 H        -0.771193         0.637012         0.642387
 H        -0.437304         0.599521        -0.997100
 H        -0.650297        -0.902857        -0.122579
 H         1.826005         1.177525         1.998742
 H         1.576271        -0.523282         2.451846
 H         4.068984        -0.834122         1.845679
 H         3.167811         2.825025         0.666708
 H         4.336485         2.206937        -0.518138
 H         2.276128         0.972738        -1.706582
 H         4.055371        -0.965745        -0.821878
