19
Iteration:  2980
 C        -0.118533         0.096747        -0.061921
 C         1.365776         0.076023         0.202767
 C         1.981150         0.036013         1.660938
 C         3.460975        -0.145023         1.350177
 O         4.105295         1.177560         1.144598
 C         3.431879         1.914803         0.123141
 C         2.564594         0.871643        -0.582267
 C         3.204431        -0.540415        -0.191354
 O         2.041205        -1.196088        -0.382292
 H        -0.584909         0.922480        -0.670290
 H        -0.308763        -0.698782        -0.747271
 H        -0.752308        -0.107597         0.779532
 H         1.721734         0.869347         2.276671
 H         1.496044        -0.847471         2.153345
 H         3.976630        -0.777470         2.031973
 H         2.802955         2.780561         0.520413
 H         4.000733         2.569660        -0.499650
 H         2.307393         0.869647        -1.752145
 H         4.026881        -0.936114        -0.700793
