19
Iteration:  1623
 C        -0.016768         0.347908        -0.039654
 C         1.422808        -0.006687         0.175285
 C         2.000277        -0.033779         1.641677
 C         3.544935        -0.095467         1.340692
 O         3.997207         1.277093         1.264297
 C         3.331947         1.861662         0.090094
 C         2.529494         0.760801        -0.651534
 C         3.261861        -0.524194        -0.283061
 O         1.978536        -1.338324        -0.331224
 H        -0.593958         0.878075         0.782550
 H        -0.201645         0.954288        -0.932797
 H        -0.560397        -0.532352        -0.156211
 H         1.645837         0.866218         2.177930
 H         1.642981        -0.993491         2.217820
 H         4.201922        -0.718583         1.994182
 H         2.635331         2.697911         0.426659
 H         4.163957         2.440124        -0.407047
 H         2.154723         0.719260        -1.811790
 H         4.112199        -0.994749        -0.893492
