19
Iteration:   105charge 0 multiplicity 1
 C        -0.006574         0.368031         0.143564
 C         1.463221         0.018462         0.124348
 C         2.127098        -0.676158         1.393315
 C         3.555027        -0.364801         0.980573
 O         3.953229         0.967184         1.498993
 C         3.030372         1.876554         0.886980
 C         2.529210         1.107876        -0.300165
 C         3.289611        -0.135494        -0.548145
 O         2.118898        -0.888770        -0.980261
 H        -0.479847         0.385231        -0.912115
 H        -0.654477        -0.377010         0.629053
 H        -0.332260         1.287518         0.591916
 H         1.641131        -0.336552         2.394879
 H         2.026279        -1.797603         1.320150
 H         4.331311        -1.098570         1.188620
 H         2.248584         2.120429         1.611797
 H         3.557337         2.781557         0.711780
 H         2.167418         1.686430        -1.255310
 H         4.197348        -0.171796        -1.155479
