19
Iteration:   380charge 0 multiplicity 1
 C        -0.062852         0.065985        -0.116197
 C         1.400060         0.056219         0.201889
 C         1.957571        -0.290681         1.598729
 C         3.478936        -0.252548         1.063509
 O         4.200443         0.908674         1.340533
 C         3.261295         1.901095         0.670832
 C         2.457505         1.099683        -0.328538
 C         3.242581        -0.192407        -0.490835
 O         2.046596        -1.003676        -0.717324
 H        -0.565505         0.913900         0.415801
 H        -0.231344         0.355399        -1.168854
 H        -0.482983        -0.877055         0.057194
 H         1.926127         0.513757         2.366890
 H         1.616578        -1.200542         1.980765
 H         4.191282        -1.023371         1.484459
 H         2.424817         2.115818         1.431260
 H         3.798264         2.733402         0.315982
 H         2.102393         1.670088        -1.313652
 H         4.159960        -0.267399        -1.136786
