19
Iteration:  4462charge 0 multiplicity 1
 C        -0.156890         0.015802        -0.067826
 C         1.328431         0.149345         0.186053
 C         1.935299         0.083082         1.703904
 C         3.475867        -0.081364         1.320658
 O         4.155246         1.244797         1.079329
 C         3.458521         1.887269         0.022499
 C         2.609683         0.754559        -0.584501
 C         3.228038        -0.547078        -0.185436
 O         1.948545        -1.195052        -0.222310
 H        -0.454623         1.001439        -0.406845
 H        -0.339593        -0.710294        -0.949703
 H        -0.732837        -0.146253         0.901152
 H         1.832139         0.954406         2.340891
 H         1.591168        -0.764473         2.278667
 H         4.111978        -0.603540         1.991067
 H         2.929961         2.798878         0.281701
 H         4.200195         2.068307        -0.818559
 H         2.392337         0.772697        -1.712822
 H         3.968530        -1.236595        -0.752519
