19
Iteration:  4029
 C         0.041085         0.474240        -0.086031
 C         1.412150         0.004109         0.272494
 C         2.076172        -0.101741         1.644092
 C         3.569423        -0.147456         1.225240
 O         3.981267         1.192572         1.220985
 C         3.200149         1.905613         0.158121
 C         2.410947         0.741665        -0.488708
 C         3.207618        -0.503451        -0.310582
 O         2.108480        -1.322640        -0.362654
 H        -0.117449         1.448881        -0.541608
 H        -0.224499        -0.068562        -1.106267
 H        -0.786837         0.263972         0.582575
 H         1.745244         0.692609         2.221767
 H         1.752775        -1.013033         2.232369
 H         4.215613        -0.773697         1.861771
 H         2.569852         2.671066         0.658786
 H         4.014245         2.251057        -0.464506
 H         2.013990         0.993031        -1.571059
 H         4.079334        -0.803531        -0.971312
