19
Iteration:  3462
 C        -0.061109         0.152863        -0.121049
 C         1.367832         0.013714         0.159669
 C         1.923468         0.076627         1.627856
 C         3.465459        -0.090843         1.323677
 O         4.203726         1.123812         1.127084
 C         3.327895         1.950588         0.188776
 C         2.633774         0.803927        -0.584190
 C         3.243261        -0.503795        -0.220549
 O         1.940702        -1.214987        -0.271712
 H        -0.654279         0.551485         0.698717
 H        -0.323494         0.656317        -1.031120
 H        -0.550328        -0.845591        -0.159959
 H         1.612783         0.968667         2.030852
 H         1.523832        -0.752370         2.201144
 H         4.097958        -0.752634         1.962968
 H         2.617855         2.587616         0.716750
 H         3.980246         2.552715        -0.466155
 H         2.364664         0.758038        -1.602351
 H         3.927191        -1.038489        -0.919520
