19
Iteration:  1562
 C        -0.083937         0.282270        -0.047712
 C         1.442322         0.037451         0.210897
 C         2.007715        -0.045299         1.612115
 C         3.455472        -0.142102         1.276360
 O         4.014871         1.281096         1.236138
 C         3.355271         1.935040         0.082251
 C         2.603474         0.764801        -0.564582
 C         3.304774        -0.588240        -0.250238
 O         1.928289        -1.258180        -0.341490
 H        -0.241717         1.175144         0.531120
 H        -0.308414         0.402049        -1.135608
 H        -0.656242        -0.724488         0.307171
 H         1.693411         0.660312         2.455965
 H         1.794293        -1.001997         2.019355
 H         4.044468        -0.689046         2.016554
 H         2.680811         2.758615         0.260340
 H         4.106632         2.382582        -0.535335
 H         2.420643         0.817831        -1.569622
 H         4.058712        -1.009703        -0.885470
