19
Iteration:   368charge 0 multiplicity 1
 C        -0.083630         0.056647        -0.108990
 C         1.386202         0.077231         0.178621
 C         1.971526        -0.233897         1.511738
 C         3.513415        -0.354160         1.021437
 O         4.159327         0.955506         1.278340
 C         3.251989         1.929210         0.777296
 C         2.498659         1.099527        -0.251725
 C         3.227896        -0.216612        -0.458782
 O         2.077542        -1.014990        -0.697788
 H        -0.689554         0.970216         0.189895
 H        -0.167229        -0.231805        -1.165402
 H        -0.493013        -0.708537         0.449852
 H         1.681283         0.538612         2.231718
 H         1.639786        -1.117134         1.882689
 H         3.977090        -1.320817         1.330123
 H         2.699062         2.512059         1.614751
 H         3.822002         2.722510         0.300069
 H         2.301610         1.672582        -1.302558
 H         3.961026        -0.317125        -1.257543
