19
Iteration:  3272
 C        -0.105926         0.219561        -0.117013
 C         1.387165         0.012371         0.205040
 C         1.983318         0.057849         1.647999
 C         3.486753        -0.179086         1.330348
 O         4.048188         1.271695         1.149629
 C         3.452621         1.895710        -0.013647
 C         2.531345         0.813062        -0.616320
 C         3.252686        -0.525383        -0.121654
 O         1.955263        -1.295698        -0.201914
 H        -0.492062        -0.800512        -0.483808
 H        -0.887785         0.627987         0.646997
 H        -0.313393         0.752104        -1.040558
 H         1.895272         0.950884         2.326089
 H         1.651941        -0.846099         2.191215
 H         4.296302        -0.671173         1.931852
 H         2.884288         2.813457         0.313900
 H         4.321151         2.179401        -0.721222
 H         2.429757         0.965595        -1.789252
 H         4.007488        -1.053337        -0.701435
