19
Iteration:  3988charge 0 multiplicity 1
 C        -0.089569         0.216881         0.024227
 C         1.492696         0.140895         0.140147
 C         1.964401        -0.034771         1.552388
 C         3.475200        -0.082106         1.290884
 O         4.095568         1.170032         1.158423
 C         3.255359         1.896259         0.253872
 C         2.589735         0.799904        -0.659877
 C         3.241597        -0.575845        -0.227623
 O         1.989454        -1.230277        -0.337959
 H        -0.476730         1.121013         0.578154
 H        -0.429654         0.169328        -1.070576
 H        -0.400362        -0.646536         0.606361
 H         1.779143         0.893150         2.173924
 H         1.556063        -0.964951         1.934973
 H         4.235907        -0.725777         1.863042
 H         2.486981         2.442808         0.824908
 H         3.874776         2.610496        -0.340331
 H         2.517562         0.946068        -1.771637
 H         4.052079        -1.151949        -0.811335
