19
Iteration:  4034
 C         0.008456         0.451515        -0.106636
 C         1.449703        -0.033897         0.331287
 C         2.070527        -0.090336         1.624147
 C         3.550327        -0.154541         1.194900
 O         3.955449         1.186521         1.242032
 C         3.211419         1.896597         0.145040
 C         2.420337         0.767954        -0.516585
 C         3.240830        -0.470304        -0.299329
 O         2.083472        -1.327572        -0.354501
 H        -0.062346         1.492415        -0.552039
 H        -0.259040        -0.059699        -1.012989
 H        -0.862724         0.361844         0.577242
 H         1.921275         0.786758         2.371632
 H         1.904396        -1.055182         2.068843
 H         4.162978        -0.809171         1.880459
 H         2.634362         2.690100         0.628159
 H         4.015563         2.258362        -0.543115
 H         2.185855         1.039810        -1.498086
 H         4.022929        -0.797694        -0.982972
