19
Iteration:  4513charge 0 multiplicity 1
 C        -0.009674         0.472624        -0.015816
 C         1.448819         0.003729         0.215552
 C         2.033527         0.094908         1.602200
 C         3.528330        -0.070508         1.256546
 O         3.918432         1.258651         1.184852
 C         3.235007         1.856510        -0.059070
 C         2.573789         0.652795        -0.659714
 C         3.339679        -0.579726        -0.187176
 O         2.019605        -1.450689        -0.157265
 H        -0.345538         1.229946         0.718561
 H        -0.095843         0.826064        -0.979847
 H        -0.710062        -0.367244         0.142489
 H         1.762910         1.213509         1.898824
 H         1.510313        -0.544991         2.349483
 H         4.187833        -0.670604         1.947903
 H         2.427646         2.433441         0.429418
 H         3.895912         2.408049        -0.741699
 H         2.166604         0.683749        -1.705072
 H         4.106901        -1.249889        -0.720949
