19
Iteration:  3458
 C        -0.082530         0.156850        -0.100523
 C         1.410066        -0.007359         0.175207
 C         1.908201         0.069718         1.565721
 C         3.506212        -0.070487         1.300674
 O         4.172579         1.121112         1.114488
 C         3.342465         1.937220         0.217781
 C         2.621718         0.842608        -0.600816
 C         3.266714        -0.541347        -0.164253
 O         1.900490        -1.203967        -0.294824
 H        -0.634166         0.462766         0.809557
 H        -0.277902         0.685909        -1.019909
 H        -0.462791        -0.842569        -0.211663
 H         1.627475         1.011564         2.155914
 H         1.516832        -0.744531         2.235181
 H         4.083792        -0.553840         2.051788
 H         2.609256         2.575628         0.727193
 H         3.991268         2.503940        -0.468282
 H         2.468277         0.681824        -1.700825
 H         3.945971        -1.037807        -0.814376
