19
Iteration:   599charge 0 multiplicity 1
 C        -0.025891         0.345527         0.101905
 C         1.448029        -0.000202         0.173166
 C         1.986517        -0.353842         1.561908
 C         3.508780        -0.247012         1.136061
 O         3.863936         1.164437         1.419778
 C         3.265585         1.911890         0.379610
 C         2.584978         0.968367        -0.470692
 C         3.324723        -0.351442        -0.442182
 O         2.084477        -1.179181        -0.678670
 H        -0.269564         1.118042         0.802416
 H        -0.312471         0.685747        -0.904674
 H        -0.703677        -0.537372         0.451584
 H         1.777607         0.240599         2.483316
 H         1.587629        -1.304477         1.703282
 H         4.173799        -0.900093         1.666766
 H         2.635317         2.723895         0.786443
 H         4.139156         2.382881        -0.132433
 H         2.158096         1.299955        -1.398991
 H         4.232389        -0.689993        -0.994155
