19
Iteration:  1720
 C         0.004354         0.216622         0.000171
 C         1.388419         0.060936         0.225676
 C         1.960077        -0.094709         1.635127
 C         3.455384        -0.110041         1.219301
 O         3.996667         1.233899         1.234255
 C         3.375516         1.863022         0.129206
 C         2.581830         0.802515        -0.635067
 C         3.263563        -0.529300        -0.208990
 O         2.000168        -1.160467        -0.388419
 H        -0.324628         1.314824        -0.238716
 H        -0.504232        -0.474281        -0.778769
 H        -0.468540        -0.043717         0.938986
 H         1.656721         0.580619         2.361293
 H         1.655318        -1.142903         2.020102
 H         4.137715        -0.753337         1.796531
 H         2.810909         2.729124         0.436643
 H         4.087131         2.312670        -0.457686
 H         2.179706         0.883182        -1.730001
 H         4.177150        -1.021136        -0.661220
