19
Iteration:  4195
 C        -0.051798         0.416320         0.102356
 C         1.440913        -0.058180         0.158389
 C         1.997616         0.017532         1.603761
 C         3.450661        -0.183792         1.196534
 O         3.904609         1.260355         1.227905
 C         3.280648         1.910767         0.111398
 C         2.543525         0.725728        -0.655980
 C         3.349714        -0.569499        -0.264908
 O         2.089825        -1.330963        -0.319471
 H        -0.375260         0.420887         1.190502
 H        -0.043430         1.495575        -0.158859
 H        -0.656293        -0.256757        -0.518047
 H         1.847516         1.028210         1.990556
 H         1.602565        -0.643024         2.360833
 H         4.094877        -0.806985         1.828545
 H         2.537902         2.680804         0.404780
 H         3.995957         2.346300        -0.606609
 H         2.457551         0.805755        -1.721852
 H         4.196875        -0.993128        -0.719389
