19
Iteration:  1127
 C        -0.002039         0.385345        -0.026577
 C         1.473723        -0.061436         0.151412
 C         1.954082        -0.041519         1.622630
 C         3.456485        -0.082297         1.213835
 O         3.983861         1.249947         1.203250
 C         3.252023         1.941753         0.147315
 C         2.613538         0.748147        -0.555857
 C         3.315023        -0.587258        -0.221214
 O         1.990382        -1.346242        -0.332285
 H        -0.304601         1.221743         0.655227
 H        -0.268521         0.854522        -1.066560
 H        -0.691779        -0.386438         0.220064
 H         1.767844         0.843935         2.145484
 H         1.692949        -0.887463         2.159649
 H         4.021198        -0.743516         1.880779
 H         2.622940         2.680861         0.626845
 H         3.942136         2.491463        -0.577462
 H         2.438035         1.058629        -1.606160
 H         4.144181        -1.170982        -0.745863
