19
Iteration:  1117charge 0 multiplicity 1
 C         0.007365         0.430087        -0.026358
 C         1.416003         0.007900         0.178157
 C         2.022655        -0.087833         1.628523
 C         3.483880        -0.103843         1.308654
 O         3.989704         1.246962         1.195481
 C         3.208115         1.869320         0.165373
 C         2.571943         0.756556        -0.720262
 C         3.324098        -0.540286        -0.195325
 O         1.976119        -1.325916        -0.335692
 H        -0.016938         1.372925         0.526988
 H        -0.033595         0.485573        -1.183141
 H        -0.623790        -0.318712         0.253435
 H         1.726458         0.687803         2.263667
 H         1.683821        -1.013082         2.139059
 H         4.155782        -0.691670         1.997793
 H         2.365043         2.485885         0.609918
 H         3.884021         2.637943        -0.335605
 H         2.465907         0.758157        -1.813344
 H         4.234259        -1.064878        -0.675396
