19
Iteration:  1488
 C        -0.153547         0.136515        -0.095026
 C         1.402491         0.073087         0.168713
 C         1.997422         0.044580         1.645711
 C         3.475413        -0.084118         1.286724
 O         4.146650         1.177027         1.171072
 C         3.341737         1.926091         0.202134
 C         2.610898         0.767501        -0.559533
 C         3.285900        -0.555177        -0.275372
 O         1.926435        -1.185524        -0.350377
 H        -0.341512         1.072776        -0.544149
 H        -0.284641        -0.663977        -0.888748
 H        -0.708061        -0.101376         0.755481
 H         1.865060         0.837292         2.428048
 H         1.591125        -0.835294         2.204728
 H         4.026532        -0.734873         1.967085
 H         2.606854         2.565671         0.805045
 H         3.943979         2.558790        -0.390865
 H         2.292616         0.885305        -1.547173
 H         4.025138        -1.083659        -0.797655
