19
Iteration:  3794
 C        -0.150777         0.034209         0.000261
 C         1.324282         0.077295         0.244367
 C         1.897020         0.012547         1.571448
 C         3.442583        -0.149923         1.230749
 O         4.088939         1.149085         1.236534
 C         3.465833         1.849343         0.153803
 C         2.569659         0.930823        -0.546038
 C         3.302757        -0.407769        -0.291096
 O         2.025706        -1.218290        -0.375546
 H        -0.128464         0.842712        -0.812104
 H        -0.509079        -0.862893        -0.480967
 H        -0.724738         0.357239         0.910641
 H         1.897844         0.978910         2.201021
 H         1.429349        -0.757281         2.130091
 H         3.879400        -0.978016         1.898875
 H         3.062027         2.812517         0.531864
 H         4.313510         2.206339        -0.462237
 H         2.227700         1.149198        -1.564954
 H         4.208189        -0.737787        -0.882600
