19
Iteration:  1601
 C         0.028816         0.362339         0.046645
 C         1.441455         0.012301         0.197157
 C         1.969835        -0.066149         1.623993
 C         3.441778        -0.155942         1.223903
 O         3.828046         1.275547         1.260289
 C         3.297374         1.886978        -0.012234
 C         2.639099         0.721809        -0.557692
 C         3.340519        -0.563234        -0.227447
 O         2.029886        -1.287309        -0.357406
 H        -0.257042         0.956786         0.979609
 H        -0.167830         1.119122        -0.719280
 H        -0.729370        -0.306360        -0.022343
 H         1.912124         0.775265         2.304822
 H         1.626323        -1.038682         2.233908
 H         4.037110        -0.689901         1.999158
 H         2.809687         2.903261         0.154465
 H         4.194546         2.184476        -0.743351
 H         2.397621         0.963646        -1.760680
 H         4.243047        -0.999886        -0.797445
