19
Iteration:  3628charge 0 multiplicity 1
 C        -0.087717         0.092691        -0.100532
 C         1.384620         0.044691         0.149617
 C         1.864602         0.015898         1.636031
 C         3.463419        -0.160185         1.238952
 O         4.211011         1.163457         1.200272
 C         3.413021         1.906982         0.197126
 C         2.480442         0.866133        -0.464633
 C         3.275331        -0.464597        -0.220165
 O         1.977313        -1.194902        -0.387649
 H        -0.308306         0.254048        -1.165465
 H        -0.448788        -0.976908         0.188970
 H        -0.619161         0.878609         0.447604
 H         1.682982         1.036059         2.024280
 H         1.471845        -0.759312         2.228348
 H         4.077688        -0.828468         1.858981
 H         2.940164         2.749866         0.745467
 H         4.032700         2.382777        -0.606058
 H         2.314836         1.177878        -1.532300
 H         4.029071        -0.967820        -0.821172
