19
Iteration:  4524
 C         0.024930         0.451399        -0.007203
 C         1.435220         0.063596         0.193530
 C         2.005484         0.137260         1.560853
 C         3.476986        -0.090761         1.265667
 O         3.967215         1.326659         1.133146
 C         3.169426         1.815137         0.019272
 C         2.565844         0.549201        -0.686564
 C         3.307119        -0.656771        -0.159934
 O         2.024633        -1.424918        -0.172467
 H        -0.118684         1.101692         0.889561
 H        -0.126204         1.099143        -0.780734
 H        -0.756799        -0.333297        -0.043023
 H         2.127472         1.107705         2.233909
 H         1.711231        -0.730832         2.184381
 H         4.221188        -0.612930         1.933512
 H         2.342095         2.549735         0.271693
 H         3.891794         2.536706        -0.369666
 H         2.353150         0.686356        -1.794228
 H         4.367074        -1.009082        -0.518650
