19
Iteration:   333
 C        -0.114776         0.143522         0.004921
 C         1.417741         0.046972         0.217931
 C         2.011135        -0.411218         1.525654
 C         3.510861        -0.339616         1.062760
 O         4.097368         1.009574         1.437976
 C         3.220751         1.919342         0.684339
 C         2.582495         1.032500        -0.381481
 C         3.219739        -0.198154        -0.517320
 O         2.048396        -0.921218        -0.803573
 H        -0.423111         0.968332        -0.698774
 H        -0.296755        -0.819073        -0.471167
 H        -0.593755         0.113149         0.962806
 H         1.671259         0.173367         2.327011
 H         1.765483        -1.436761         1.653370
 H         4.277547        -0.967164         1.457610
 H         2.520380         2.413671         1.381366
 H         3.909502         2.685099         0.169548
 H         2.299226         1.531028        -1.381169
 H         4.072647        -0.326490        -1.114442
