19
Iteration:  3070charge 0 multiplicity 1
 C         0.025056         0.379500        -0.131371
 C         1.458800         0.004190         0.224993
 C         1.978384        -0.074464         1.780959
 C         3.468280        -0.064345         1.230231
 O         4.066453         1.257877         1.175595
 C         3.211776         1.943994         0.189539
 C         2.551335         0.716289        -0.612552
 C         3.266409        -0.538602        -0.254203
 O         1.966558        -1.342495        -0.335832
 H        -0.266645         1.292607        -0.670972
 H        -0.161719        -0.351140        -0.876715
 H        -0.700974         0.293188         0.707625
 H         1.756569         0.597051         2.558426
 H         1.836363        -1.174039         1.908653
 H         4.237295        -0.709595         1.794184
 H         2.652923         2.805153         0.627283
 H         3.869627         2.456760        -0.497593
 H         2.352419         0.876358        -1.678779
 H         4.080629        -1.069526        -0.829408
