19
Iteration:  3613
 C        -0.069813         0.097710        -0.179826
 C         1.375858         0.059496         0.258878
 C         1.942169        -0.014146         1.672606
 C         3.396867        -0.135886         1.342088
 O         4.209938         1.172355         1.093031
 C         3.396843         1.941065         0.252503
 C         2.589642         0.901977        -0.566927
 C         3.163798        -0.507446        -0.282677
 O         1.974701        -1.203618        -0.330581
 H        -0.129855         0.549531        -1.156093
 H        -0.571390        -0.816726        -0.273670
 H        -0.703545         0.597297         0.558053
 H         1.732167         0.671749         2.469684
 H         1.555785        -1.111472         2.015906
 H         4.048600        -0.837684         2.049591
 H         2.741169         2.730604         0.680760
 H         4.123116         2.429183        -0.495147
 H         2.229394         1.068514        -1.602887
 H         4.186467        -0.827583        -0.799069
