19
Iteration:  1254charge 0 multiplicity 1
 C        -0.001613         0.443871        -0.043474
 C         1.439236        -0.013637         0.159865
 C         2.060868        -0.150380         1.666702
 C         3.542361        -0.067278         1.320518
 O         3.947893         1.280688         1.147091
 C         3.233508         1.896319         0.171327
 C         2.584213         0.735350        -0.675059
 C         3.253574        -0.622127        -0.249236
 O         1.987955        -1.277592        -0.312984
 H         0.078152         1.482681        -0.307004
 H        -0.400897        -0.002041        -0.873405
 H        -0.786781         0.239545         0.751096
 H         1.738462         0.561695         2.582414
 H         1.821632        -1.222398         2.013662
 H         4.125173        -0.562869         2.027585
 H         2.232099         2.363774         0.586544
 H         3.928046         2.640309        -0.218447
 H         2.616959         1.012447        -1.761076
 H         4.033423        -1.167414        -0.751886
