19
Iteration:  4779
 C        -0.123811        -0.022417        -0.099102
 C         1.363267         0.123695         0.183929
 C         1.976984         0.329345         1.685677
 C         3.445116         0.032312         1.293867
 O         4.227380         1.141444         0.996994
 C         3.464750         1.858795        -0.054827
 C         2.543773         0.737233        -0.592021
 C         3.179782        -0.624213        -0.115698
 O         1.907772        -1.271609        -0.095441
 H        -0.362895        -0.652067        -0.931787
 H        -0.639115        -0.388020         0.845856
 H        -0.532653         0.943027        -0.240630
 H         1.751573         1.305958         2.074415
 H         1.545416        -0.507770         2.344746
 H         3.944947        -0.594896         2.040150
 H         2.893591         2.678733         0.431994
 H         4.064355         2.382556        -0.754951
 H         2.695674         0.927787        -1.631697
 H         3.987152        -1.168019        -0.617508
