19
Iteration:  1194charge 0 multiplicity 1
 C        -0.108408         0.042729        -0.072933
 C         1.379663         0.063043         0.171844
 C         1.905841         0.091126         1.603735
 C         3.460098        -0.080165         1.272944
 O         4.230090         1.141758         1.205582
 C         3.410337         1.876103         0.150486
 C         2.536491         0.896036        -0.551715
 C         3.248468        -0.503357        -0.225665
 O         1.901926        -1.215077        -0.301937
 H        -0.840155         0.661004         0.501531
 H        -0.135951         0.195906        -1.271542
 H        -0.247298        -0.994332         0.126910
 H         1.700729         0.966598         2.084655
 H         1.446750        -0.747626         2.121258
 H         4.145588        -0.785848         1.919592
 H         2.929039         2.775728         0.493080
 H         4.126490         2.278177        -0.618065
 H         2.306081         1.134594        -1.578988
 H         4.173543        -0.872571        -0.809569
