19
Iteration:  1553
 C        -0.053140         0.249082        -0.071373
 C         1.420220        -0.018332         0.179069
 C         2.018771        -0.021661         1.641061
 C         3.497640        -0.151105         1.287259
 O         4.040808         1.239782         1.226841
 C         3.385902         1.961897         0.108389
 C         2.545695         0.757061        -0.577809
 C         3.266740        -0.529078        -0.223951
 O         1.926770        -1.258684        -0.344423
 H        -0.507610         1.178153         0.270988
 H        -0.277149         0.223500        -1.213567
 H        -0.741030        -0.551395         0.448776
 H         1.872770         0.979961         2.160102
 H         1.472990        -0.846498         2.155160
 H         4.215995        -0.699772         1.882033
 H         2.774472         2.725783         0.641300
 H         4.056286         2.419958        -0.545354
 H         2.332560         0.849663        -1.597722
 H         4.044605        -0.891232        -0.823820
