19
Iteration:   389charge 0 multiplicity 1
 C        -0.073175         0.120049        -0.128272
 C         1.407702         0.007949         0.171747
 C         2.032476        -0.340270         1.611682
 C         3.501111        -0.279972         1.115605
 O         4.167659         0.961997         1.364853
 C         3.234835         1.877111         0.671550
 C         2.437725         1.082690        -0.442350
 C         3.241308        -0.208456        -0.479361
 O         2.030512        -0.952833        -0.700986
 H        -0.528925         0.664160         0.798637
 H        -0.177314         0.602458        -1.118775
 H        -0.506176        -0.823000        -0.145510
 H         1.845264         0.397285         2.389144
 H         1.712008        -1.238794         1.958093
 H         4.158920        -1.104154         1.489673
 H         2.705780         2.422383         1.471448
 H         3.833576         2.733449         0.322608
 H         2.007942         1.692936        -1.407925
 H         4.105483        -0.538015        -1.030868
