19
Iteration:  1097charge 0 multiplicity 1
 C         0.020250         0.432271        -0.111766
 C         1.490965         0.067725         0.183438
 C         1.978240        -0.099175         1.671591
 C         3.507634        -0.119891         1.245333
 O         3.975628         1.219478         1.152682
 C         3.118895         1.865209         0.156385
 C         2.620771         0.726370        -0.550087
 C         3.324687        -0.610151        -0.236724
 O         2.023319        -1.219526        -0.298718
 H         0.022709         1.512548        -0.056074
 H        -0.346989        -0.038220        -1.098872
 H        -0.529187        -0.012446         0.674529
 H         1.695789         0.619499         2.452021
 H         1.576897        -1.217609         2.046602
 H         4.130237        -0.822858         1.906591
 H         2.338489         2.525285         0.688054
 H         3.625886         2.612450        -0.520709
 H         2.386846         0.914518        -1.576048
 H         4.088180        -1.177031        -0.871528
