19
Iteration:  2724
 C         0.005590         0.280495        -0.028175
 C         1.419017        -0.000957         0.222259
 C         1.982409        -0.037051         1.624239
 C         3.515627        -0.102660         1.316375
 O         3.985431         1.277635         1.208586
 C         3.342910         1.873864         0.046652
 C         2.519189         0.770360        -0.572481
 C         3.251213        -0.589206        -0.237358
 O         1.997324        -1.257108        -0.346147
 H        -0.287774         1.183174         0.459284
 H        -0.127992         0.340614        -1.157940
 H        -0.675352        -0.581238         0.338390
 H         1.673243         0.795816         2.293581
 H         1.638491        -0.906789         2.216529
 H         4.160290        -0.499147         2.114142
 H         2.810881         2.828326         0.242085
 H         4.140169         2.145964        -0.675375
 H         2.175581         0.937614        -1.524751
 H         4.042024        -0.850320        -0.954866
