19
Iteration:   168charge 0 multiplicity 1
 C        -0.122678         0.108231        -0.010805
 C         1.437456         0.014797         0.123394
 C         2.078426        -0.596001         1.427779
 C         3.548115        -0.388836         1.028965
 O         4.057019         0.930129         1.492244
 C         3.220845         1.960460         0.790912
 C         2.482113         1.176444        -0.264067
 C         3.252175        -0.135948        -0.544438
 O         2.053834        -0.782709        -0.811339
 H        -0.405508         1.047234         0.372464
 H        -0.343380         0.080218        -1.081408
 H        -0.538376        -0.790430         0.533575
 H         1.815046        -0.082529         2.282420
 H         1.798632        -1.685375         1.506733
 H         4.275469        -1.199401         1.303757
 H         2.545160         2.539779         1.512602
 H         3.870608         2.635714         0.241680
 H         2.156482         1.707151        -1.211511
 H         4.004430        -0.208880        -1.375316
