19
Iteration:  2913charge 0 multiplicity 1
 C         0.049754         0.395875        -0.013390
 C         1.485086         0.042570         0.201413
 C         1.987216        -0.068270         1.572346
 C         3.455070        -0.175283         1.339984
 O         4.046034         1.300204         1.136663
 C         3.185800         1.882019         0.106268
 C         2.559186         0.708256        -0.649321
 C         3.298160        -0.587688        -0.200106
 O         1.956067        -1.302096        -0.310981
 H        -0.219434         1.216308         0.657146
 H        -0.106801         0.546261        -1.109831
 H        -0.407389        -0.510920         0.312993
 H         1.647444         0.839117         2.148817
 H         1.593666        -0.867716         2.151895
 H         4.048258        -0.511205         2.149185
 H         2.402958         2.622662         0.595460
 H         3.773928         2.655468        -0.407997
 H         2.464194         0.723490        -1.818590
 H         4.232562        -0.994985        -0.573916
