19
Iteration:  1614charge 0 multiplicity 1
 C        -0.037922         0.407367         0.008110
 C         1.455437        -0.031799         0.189083
 C         2.004851        -0.052850         1.640145
 C         3.492580        -0.058136         1.265364
 O         3.897474         1.313294         1.264378
 C         3.346763         1.822087         0.113313
 C         2.536104         0.736017        -0.601282
 C         3.271582        -0.613225        -0.276871
 O         2.052683        -1.296954        -0.367885
 H        -0.386494         0.904113         0.909183
 H        -0.071283         0.994506        -0.826957
 H        -0.593641        -0.545463        -0.141634
 H         1.717306         0.974126         2.081422
 H         1.528271        -0.894023         2.162705
 H         4.271077        -0.637440         1.771523
 H         2.659072         2.656937         0.384099
 H         4.231610         2.109726        -0.636669
 H         2.210918         0.883981        -1.718492
 H         4.101732        -1.160147        -0.773688
