19
Iteration:  4962
 C        -0.227379         0.213265        -0.037905
 C         1.470729         0.039377         0.174283
 C         1.957840         0.258314         1.646446
 C         3.451997        -0.055915         1.318133
 O         4.160672         1.274148         0.988830
 C         3.316885         1.788517        -0.026658
 C         2.560509         0.650704        -0.654243
 C         3.339761        -0.635647        -0.062145
 O         1.984591        -1.299492        -0.117900
 H        -0.560955        -0.673734        -0.581233
 H        -0.750630         0.305728         0.994437
 H        -0.385881         1.110163        -0.617283
 H         1.944706         1.186970         2.196284
 H         1.476759        -0.531439         2.279494
 H         4.074750        -0.562231         1.970570
 H         2.735474         2.664231         0.349436
 H         3.855819         2.353898        -0.833969
 H         2.377354         0.635522        -1.756913
 H         4.176086        -1.126846        -0.622458
