19
Iteration:  4360charge 0 multiplicity 1
 C        -0.014653         0.351254        -0.041635
 C         1.386576        -0.032394         0.261900
 C         2.070849        -0.036994         1.714593
 C         3.472121        -0.113868         1.248927
 O         3.914953         1.286584         1.201120
 C         3.336718         1.845914         0.007844
 C         2.496535         0.732890        -0.649749
 C         3.253381        -0.543928        -0.296095
 O         2.014763        -1.310525        -0.204417
 H        -0.166773        -0.194827        -1.023531
 H        -0.794021         0.311019         0.631287
 H         0.215185         1.409006        -0.277967
 H         2.101679         0.872904         2.404060
 H         1.609479        -0.855347         2.268921
 H         4.400672        -0.501162         1.702225
 H         2.792219         2.772863         0.240746
 H         4.185674         2.201342        -0.581631
 H         2.355816         0.765538        -1.691080
 H         4.101832        -0.777137        -0.955024
