19
Iteration:  4697
 C         0.031476         0.454261        -0.131579
 C         1.455338         0.023384         0.264957
 C         2.086912        -0.009313         1.786601
 C         3.481566        -0.043153         1.304334
 O         3.964894         1.338656         1.003053
 C         3.269332         1.893867        -0.084243
 C         2.504928         0.620233        -0.643723
 C         3.268450        -0.686084        -0.120297
 O         1.963073        -1.362523        -0.118839
 H        -0.606548        -0.495123        -0.486037
 H        -0.545867         0.937734         0.634201
 H         0.030388         1.139853        -1.084369
 H         1.787684         0.828459         2.476564
 H         1.599589        -0.861586         2.208706
 H         4.285516        -0.440417         2.068544
 H         2.484783         2.628664         0.163547
 H         4.213743         2.249212        -0.622258
 H         2.300354         0.666221        -1.753446
 H         4.130275        -1.249621        -0.654097
