19
Iteration:  4328charge 0 multiplicity 1
 C        -0.011504         0.265101         0.113869
 C         1.407175         0.044710         0.123785
 C         1.949565        -0.018861         1.565964
 C         3.448155        -0.070501         1.319340
 O         4.031560         1.248101         1.138095
 C         3.350083         1.914106         0.053735
 C         2.545968         0.718364        -0.615290
 C         3.300810        -0.589000        -0.183487
 O         1.981582        -1.257006        -0.287353
 H        -0.468438        -0.569308        -0.525424
 H        -0.610416         0.356579         0.997011
 H        -0.283632         1.157941        -0.562992
 H         1.825451         0.874982         2.233937
 H         1.548504        -0.851463         2.073434
 H         4.141526        -0.538292         2.067296
 H         2.682540         2.710939         0.326715
 H         4.140333         2.183854        -0.684840
 H         2.491283         0.777201        -1.687318
 H         4.144691        -1.064354        -0.777386
