19
Iteration:   741charge 0 multiplicity 1
 C        -0.002278         0.186235        -0.014540
 C         1.474215         0.060067         0.160136
 C         1.971426        -0.268043         1.643567
 C         3.441341        -0.219654         1.210923
 O         3.952359         1.113979         1.359520
 C         3.346468         1.960747         0.291190
 C         2.540809         0.982416        -0.522588
 C         3.272297        -0.378638        -0.359141
 O         2.037586        -1.160908        -0.555484
 H        -0.436148         0.240728        -0.955578
 H        -0.570118        -0.548217         0.468168
 H        -0.318552         1.199141         0.377349
 H         1.721762         0.528490         2.492619
 H         1.566888        -1.237877         1.841374
 H         4.122979        -0.866352         1.833775
 H         2.698173         2.680937         0.709188
 H         4.065459         2.390169        -0.425269
 H         2.406730         1.324803        -1.510172
 H         4.079105        -0.775703        -1.006567
