19
Iteration:  1413charge 0 multiplicity 1
 C         0.033104         0.362560        -0.026728
 C         1.482109         0.035243         0.228422
 C         1.973511        -0.122848         1.684795
 C         3.495953        -0.111483         1.279994
 O         3.914405         1.265830         1.149568
 C         3.258526         1.921864         0.054376
 C         2.595580         0.730786        -0.620690
 C         3.347869        -0.639009        -0.211754
 O         1.949323        -1.198925        -0.335262
 H        -0.321595         1.050925         0.748416
 H        -0.209256         0.787882        -1.064432
 H        -0.399299        -0.541712         0.209262
 H         1.717278         0.692233         2.310042
 H         1.698615        -1.143418         2.092959
 H         4.076507        -0.578137         2.083996
 H         2.587326         2.642253         0.492572
 H         4.117255         2.346118        -0.563559
 H         2.252372         0.712794        -1.635130
 H         4.124025        -1.099800        -0.760453
