19
Iteration:  2586charge 0 multiplicity 1
 C         0.019465         0.387578         0.061042
 C         1.463613         0.052016         0.168874
 C         2.026866        -0.132206         1.641308
 C         3.437755        -0.185134         1.313676
 O         3.903674         1.310163         1.189445
 C         3.277192         1.908752         0.015841
 C         2.600755         0.714235        -0.629265
 C         3.291741        -0.579392        -0.167618
 O         2.016975        -1.291107        -0.377150
 H         0.155357         1.459046         0.178626
 H        -0.581489        -0.000910        -0.858708
 H        -0.601003         0.183835         0.920189
 H         1.690591         0.781415         2.302482
 H         1.628226        -1.050029         2.080190
 H         4.222449        -0.571704         1.993150
 H         2.469576         2.737780         0.339990
 H         3.842069         2.481926        -0.747261
 H         2.560497         0.626610        -1.738788
 H         4.178804        -0.885072        -0.708297
