19
Iteration:  2941
 C        -0.033436         0.303738        -0.144650
 C         1.412243         0.053525         0.241243
 C         2.033236        -0.017350         1.642853
 C         3.503261        -0.156562         1.228539
 O         4.012111         1.238638         1.179947
 C         3.256840         1.940120         0.178473
 C         2.513348         0.780414        -0.614598
 C         3.180946        -0.582729        -0.270902
 O         2.061784        -1.326570        -0.238733
 H        -0.004742         1.408917        -0.066483
 H        -0.158880        -0.080626        -1.183580
 H        -0.789676        -0.127653         0.569911
 H         1.922569         0.925071         2.218401
 H         1.616988        -0.833692         2.276641
 H         4.208407        -0.616930         1.992037
 H         2.674908         2.746829         0.644028
 H         4.085064         2.321385        -0.472223
 H         2.536945         0.848028        -1.637267
 H         4.031289        -0.980844        -0.923447
