19
Iteration:  2995charge 0 multiplicity 1
 C        -0.150233         0.051822        -0.014863
 C         1.436641         0.130890         0.159693
 C         1.891217         0.071741         1.610833
 C         3.421780        -0.114974         1.230753
 O         4.098299         1.146056         1.196433
 C         3.361834         1.956998         0.149903
 C         2.612752         0.826654        -0.568715
 C         3.341409        -0.524101        -0.193681
 O         1.970678        -1.241833        -0.378479
 H        -0.623959         0.955659        -0.524594
 H        -0.453994        -0.899346        -0.617779
 H        -0.573062         0.086839         1.066774
 H         1.915912         1.079509         2.040769
 H         1.485779        -0.755116         2.223525
 H         4.107035        -0.761737         1.913795
 H         2.737499         2.770514         0.675113
 H         4.215909         2.209035        -0.518977
 H         2.480689         1.090844        -1.591927
 H         4.325699        -0.969140        -0.638236
