19
Iteration:   373charge 0 multiplicity 1
 C        -0.057610         0.072444        -0.107346
 C         1.383496         0.076045         0.199316
 C         1.956938        -0.231612         1.537293
 C         3.507419        -0.315926         1.035607
 O         4.173334         0.935745         1.294562
 C         3.256024         1.922567         0.728726
 C         2.495189         1.108289        -0.259544
 C         3.236519        -0.205705        -0.470763
 O         2.070577        -1.025480        -0.711585
 H        -0.653313         0.890281         0.209870
 H        -0.230598         0.001476        -1.200621
 H        -0.564455        -0.907393         0.341304
 H         1.730586         0.554972         2.302479
 H         1.585991        -1.280287         1.986700
 H         3.962060        -1.258736         1.317812
 H         2.535668         2.283895         1.498439
 H         3.817271         2.764672         0.269503
 H         2.296715         1.557127        -1.125115
 H         3.998366        -0.217436        -1.290135
