19
Iteration:  1302
 C        -0.078882         0.295157        -0.012616
 C         1.488134        -0.050178         0.186473
 C         1.983300        -0.049075         1.670107
 C         3.483696        -0.038324         1.261401
 O         3.987973         1.219565         1.273828
 C         3.366938         1.916679         0.105565
 C         2.559844         0.790474        -0.634172
 C         3.251298        -0.542204        -0.322703
 O         1.988481        -1.301014        -0.333677
 H        -0.261422         1.401496         0.126606
 H        -0.585431         0.009556        -1.011535
 H        -0.691816        -0.253443         0.620849
 H         1.712092         0.855822         2.240211
 H         1.679938        -0.873158         2.247412
 H         4.125932        -0.795731         1.852314
 H         2.764731         2.757479         0.427578
 H         4.250591         2.259557        -0.532222
 H         2.215742         1.077810        -1.610433
 H         4.220341        -0.948169        -0.843653
