19
Iteration:   514charge 0 multiplicity 1
 C        -0.079571         0.147618        -0.199662
 C         1.382530         0.034940         0.213412
 C         1.997313        -0.255207         1.652615
 C         3.499143        -0.227282         1.117400
 O         4.188965         0.995143         1.288797
 C         3.254349         1.929515         0.603059
 C         2.472269         1.044351        -0.380531
 C         3.218310        -0.285915        -0.466872
 O         2.051501        -1.079897        -0.619584
 H        -0.165022        -0.106349        -1.199448
 H        -0.593273        -0.529584         0.434319
 H        -0.622593         1.101177         0.102287
 H         1.937684         0.558893         2.354460
 H         1.748382        -1.162814         2.130468
 H         4.170048        -0.907047         1.619696
 H         2.533981         2.307021         1.375960
 H         3.828696         2.647417         0.151951
 H         2.160936         1.406555        -1.289474
 H         3.934885        -0.551995        -1.262820
