19
Iteration:  3923
 C        -0.077552         0.077618        -0.107881
 C         1.347771         0.106868         0.250538
 C         1.972488        -0.077809         1.696262
 C         3.465807        -0.038105         1.203651
 O         4.112916         1.182072         1.198350
 C         3.449044         1.904487         0.060313
 C         2.580075         0.809368        -0.531823
 C         3.211144        -0.489322        -0.263671
 O         1.960869        -1.142860        -0.281370
 H        -0.689362         0.452203         0.751087
 H        -0.305998         0.625042        -1.062374
 H        -0.470882        -0.902495        -0.370551
 H         1.525960         0.732213         2.508559
 H         1.540430        -1.031335         2.056825
 H         3.990649        -0.825404         1.868360
 H         3.013954         2.772237         0.564382
 H         4.295433         2.256188        -0.604335
 H         2.174037         0.783791        -1.574753
 H         4.069238        -0.935882        -0.887787
