19
Iteration:  3708charge 0 multiplicity 1
 C         0.014345         0.404925        -0.158717
 C         1.429542         0.021275         0.265001
 C         1.970422        -0.212356         1.715245
 C         3.545533        -0.129228         1.198908
 O         4.040307         1.199228         1.200893
 C         3.204281         1.999103         0.224546
 C         2.527344         0.719007        -0.475124
 C         3.246754        -0.488993        -0.308994
 O         2.083673        -1.279717        -0.394965
 H        -0.597845        -0.146327        -0.989640
 H        -0.647385         0.382819         0.739764
 H        -0.016674         1.531611        -0.434006
 H         1.684801         0.685526         2.311427
 H         1.559175        -1.147803         2.167653
 H         4.175973        -0.873980         1.780960
 H         2.411945         2.671856         0.632345
 H         3.839790         2.454154        -0.528931
 H         2.124605         0.942175        -1.445730
 H         3.938090        -0.919233        -1.050500
