19
Iteration:  3491charge 0 multiplicity 1
 C        -0.022370         0.202521        -0.161086
 C         1.356348         0.077294         0.258083
 C         2.014958         0.063085         1.643219
 C         3.508883        -0.140006         1.233320
 O         4.020741         1.115682         1.192512
 C         3.343258         1.895810         0.158181
 C         2.494493         0.847046        -0.547111
 C         3.262329        -0.485895        -0.262632
 O         2.020463        -1.282431        -0.262326
 H        -0.559914         1.162579         0.063290
 H        -0.120105         0.101355        -1.209549
 H        -0.612641        -0.593802         0.256692
 H         1.889663         1.070331         2.126313
 H         1.611551        -0.797342         2.254198
 H         4.156400        -0.744028         1.803975
 H         2.924358         2.821786         0.585098
 H         4.164047         2.205208        -0.533482
 H         2.148582         0.936424        -1.565032
 H         3.950003        -0.953677        -0.915500
