19
Iteration:  4461charge 0 multiplicity 1
 C        -0.159264         0.005307        -0.070683
 C         1.327877         0.150695         0.187368
 C         1.939932         0.091188         1.699765
 C         3.475172        -0.082022         1.312661
 O         4.152325         1.243637         1.081971
 C         3.465370         1.877994         0.026783
 C         2.612060         0.761353        -0.582649
 C         3.228831        -0.543249        -0.185978
 O         1.948265        -1.196668        -0.222442
 H        -0.407741         0.992446        -0.414243
 H        -0.378176        -0.707546        -0.903120
 H        -0.741091        -0.147402         0.902779
 H         1.833709         0.999392         2.359720
 H         1.558439        -0.750940         2.274771
 H         4.103017        -0.631155         2.002257
 H         2.922650         2.791393         0.284080
 H         4.182770         2.102512        -0.833067
 H         2.362953         0.788906        -1.710073
 H         3.982083        -1.254791        -0.753591
