19
Iteration:  2222
 C        -0.029559         0.283102        -0.086269
 C         1.458603         0.043846         0.140050
 C         1.901766        -0.015340         1.662160
 C         3.516102        -0.110967         1.210771
 O         4.114009         1.171615         1.185216
 C         3.234186         1.908917         0.175040
 C         2.545153         0.805538        -0.621626
 C         3.287879        -0.587501        -0.234516
 O         2.003045        -1.249712        -0.250469
 H        -0.179385         1.406472        -0.410902
 H        -0.405181        -0.262461        -0.917300
 H        -0.667035        -0.096240         0.742298
 H         1.577953         0.794959         2.321607
 H         1.623504        -0.955921         2.247933
 H         4.131494        -0.645193         1.928677
 H         2.607949         2.597760         0.844089
 H         3.721400         2.648632        -0.425457
 H         2.385783         0.899356        -1.751050
 H         4.073004        -1.009716        -0.876342
