19
Iteration:  1848charge 0 multiplicity 1
 C        -0.106517        -0.031859        -0.064336
 C         1.342713         0.002170         0.234864
 C         1.971843         0.170285         1.650047
 C         3.402575        -0.142023         1.259388
 O         4.126702         1.114928         1.203650
 C         3.476079         1.867597         0.158899
 C         2.555663         0.915283        -0.579950
 C         3.223907        -0.442560        -0.347605
 O         2.014183        -1.153637        -0.278122
 H        -0.822310         0.483367         0.600745
 H        -0.175855         0.412159        -1.143495
 H        -0.457666        -0.995977        -0.135763
 H         1.677263         1.152406         2.106529
 H         1.515989        -0.680467         2.348563
 H         3.896515        -0.844113         1.983077
 H         2.921457         2.752354         0.580141
 H         4.368680         2.151995        -0.634238
 H         2.238823         1.180054        -1.519404
 H         3.898708        -0.993949        -1.119104
