19
Iteration:  1296
 C        -0.035262         0.332307        -0.012786
 C         1.481730        -0.048595         0.217874
 C         2.026061        -0.059056         1.636341
 C         3.483940        -0.075950         1.314939
 O         3.919491         1.214345         1.222789
 C         3.320976         1.869981         0.125307
 C         2.563443         0.822850        -0.642715
 C         3.253227        -0.519252        -0.313083
 O         2.019296        -1.300854        -0.333720
 H         0.024773         1.417763        -0.049542
 H        -0.375976         0.074286        -1.021132
 H        -0.721912        -0.077704         0.846801
 H         1.694445         0.868353         2.193796
 H         1.671641        -0.992687         2.202092
 H         4.211784        -0.593675         1.884480
 H         2.732107         2.730930         0.521803
 H         4.113056         2.038982        -0.599393
 H         2.184694         1.076138        -1.660617
 H         4.019861        -0.967939        -0.846156
