19
Iteration:    13
 C        -0.146581         0.043429        -0.006596
 C         1.399813         0.044347         0.190103
 C         2.072450        -0.606068         1.406033
 C         3.557322        -0.425303         0.966724
 O         4.096222         0.806907         1.502691
 C         3.233582         1.956973         0.996608
 C         2.436590         1.296837        -0.222681
 C         3.271058         0.001702        -0.577821
 O         2.083789        -0.749046        -1.024974
 H        -0.683681         0.156051         0.878949
 H        -0.440326         0.857857        -0.739027
 H        -0.360517        -0.979469        -0.478849
 H         1.690895        -0.203153         2.299220
 H         1.771685        -1.742387         1.382360
 H         4.207071        -1.306139         1.096781
 H         2.576487         2.263639         1.817112
 H         3.904487         2.727830         0.836404
 H         2.076162         1.830076        -1.048156
 H         4.199100        -0.197958        -1.125221
