19
Iteration:  3733charge 0 multiplicity 1
 C         0.006083         0.306303        -0.121946
 C         1.472227         0.025925         0.186187
 C         2.068636        -0.090452         1.657725
 C         3.499706        -0.121085         1.169944
 O         4.032245         1.142887         1.232409
 C         3.217101         1.878522         0.288674
 C         2.508527         0.832300        -0.643521
 C         3.280233        -0.457013        -0.264004
 O         1.980603        -1.256360        -0.325124
 H        -0.378965        -0.084444        -1.079953
 H        -0.661880        -0.121191         0.643543
 H        -0.245676         1.408390        -0.103469
 H         1.958320         0.827372         2.228659
 H         1.563139        -1.056723         2.167902
 H         4.175794        -0.789850         1.849918
 H         2.394325         2.421756         0.771283
 H         3.844125         2.515438        -0.346181
 H         2.125208         1.348188        -1.543779
 H         4.100228        -1.088680        -0.775549
