19
Iteration:  1755
 C         0.045522         0.468525        -0.023763
 C         1.469606        -0.004526         0.220258
 C         1.993500        -0.181263         1.674383
 C         3.477133        -0.154675         1.168417
 O         3.898040         1.353157         1.284879
 C         3.267803         1.888548         0.106507
 C         2.554348         0.726417        -0.622675
 C         3.255981        -0.559364        -0.251413
 O         2.054235        -1.324085        -0.375603
 H         0.058189         1.562938        -0.056755
 H        -0.482552         0.058081        -0.848747
 H        -0.529656         0.229518         0.953408
 H         1.902344         0.639729         2.458491
 H         1.665477        -1.140638         2.029342
 H         4.217467        -0.717971         1.688587
 H         2.519801         2.599676         0.426944
 H         4.044310         2.333304        -0.406454
 H         2.181722         0.788769        -1.740405
 H         4.123415        -0.961770        -0.707604
