19
Iteration:  1814
 C        -0.112756         0.136284        -0.093748
 C         1.412669         0.021648         0.177665
 C         1.994177         0.058910         1.629197
 C         3.464012        -0.120423         1.327352
 O         4.195324         1.192919         1.090754
 C         3.321295         1.895942         0.243897
 C         2.599762         0.812398        -0.567248
 C         3.228129        -0.530383        -0.227211
 O         1.937291        -1.192187        -0.325174
 H        -0.654909         0.809733         0.514740
 H        -0.348273         0.417970        -1.181610
 H        -0.494446        -0.870477        -0.001862
 H         1.639030         0.916027         2.318444
 H         1.654473        -0.919036         2.129848
 H         3.977705        -0.708879         2.149088
 H         2.529474         2.606629         0.610221
 H         3.991169         2.556895        -0.517200
 H         2.480146         0.988578        -1.567410
 H         3.929637        -1.036904        -0.976474
