19
Iteration:  4043
 C        -0.042120         0.383756        -0.120841
 C         1.396967        -0.031537         0.263898
 C         2.073574        -0.142013         1.705275
 C         3.483730        -0.146811         1.154354
 O         3.954541         1.221683         1.250701
 C         3.262563         1.865347         0.162697
 C         2.512276         0.842467        -0.558733
 C         3.325300        -0.465582        -0.310798
 O         2.006870        -1.294572        -0.310496
 H         0.278028         1.460559        -0.245377
 H        -0.346617        -0.312415        -0.970210
 H        -0.780447         0.359780         0.699819
 H         2.045446         0.689753         2.426801
 H         1.733031        -1.074795         2.124625
 H         4.265088        -0.824725         1.709623
 H         2.694095         2.742244         0.508644
 H         3.897970         2.390867        -0.602885
 H         2.223300         0.967673        -1.630987
 H         4.160473        -0.842191        -1.001828
