19
Iteration:  2260charge 0 multiplicity 1
 C        -0.017112         0.408544        -0.010778
 C         1.460865         0.001569         0.150993
 C         1.994852        -0.062658         1.772769
 C         3.525875        -0.142417         1.240457
 O         3.928162         1.224309         1.204454
 C         3.198196         1.939684         0.012061
 C         2.586129         0.730393        -0.577539
 C         3.333476        -0.638922        -0.189084
 O         2.045561        -1.258156        -0.359366
 H        -0.067745         1.283558         0.555511
 H        -0.188987         0.729691        -1.150474
 H        -0.893271        -0.187141         0.405786
 H         1.661161         0.960077         2.220735
 H         1.416736        -0.898776         2.107658
 H         4.267419        -0.823072         1.744465
 H         2.492852         2.569689         0.421872
 H         3.973829         2.436416        -0.652433
 H         2.319204         0.776741        -1.615090
 H         4.159745        -1.082755        -0.737671
