19
Iteration:  4010charge 0 multiplicity 1
 C        -0.023573         0.365347        -0.068293
 C         1.485022        -0.041169         0.246566
 C         1.950769        -0.106601         1.693757
 C         3.486992        -0.135499         1.227923
 O         4.070995         1.233947         1.135100
 C         3.189796         1.912438         0.211986
 C         2.561492         0.778105        -0.583707
 C         3.300453        -0.509616        -0.258734
 O         1.990035        -1.290777        -0.376640
 H        -0.062545         1.500728        -0.019825
 H        -0.453461         0.160970        -1.105545
 H        -0.733874         0.073614         0.708446
 H         1.924585         0.753323         2.365597
 H         1.651484        -1.037463         2.146254
 H         4.205701        -0.765653         1.887015
 H         2.438710         2.449217         0.814753
 H         3.779217         2.599521        -0.449069
 H         2.445087         1.087782        -1.639454
 H         4.125118        -1.012311        -0.874213
