19
Iteration:  4571
 C        -0.099205         0.198601        -0.114369
 C         1.406137         0.055574         0.212982
 C         2.003439         0.133958         1.747989
 C         3.458809        -0.043740         1.285420
 O         4.124280         1.252522         1.076501
 C         3.364253         1.837347        -0.042958
 C         2.522760         0.713012        -0.553103
 C         3.200129        -0.565079        -0.178534
 O         1.983748        -1.289611        -0.165325
 H        -0.773751         0.375065         0.640241
 H        -0.288134         0.963359        -0.893972
 H        -0.317081        -0.740289        -0.621722
 H         1.837548         1.035887         2.329263
 H         1.775747        -0.806651         2.297098
 H         4.147332        -0.585694         1.851162
 H         3.001269         2.736444         0.431157
 H         3.927769         2.189969        -0.920468
 H         2.478274         0.734787        -1.651527
 H         3.912619        -1.200919        -0.715953
