19
Iteration:  1961charge 0 multiplicity 1
 C        -0.004824         0.275371        -0.092651
 C         1.447148         0.078878         0.238515
 C         1.974890        -0.094439         1.598129
 C         3.468551        -0.127788         1.265085
 O         4.056552         1.173067         1.115375
 C         3.203850         1.963786         0.182129
 C         2.567461         0.806871        -0.592066
 C         3.260041        -0.551646        -0.219034
 O         2.030813        -1.256364        -0.295863
 H        -0.004495         1.412401        -0.203748
 H        -0.255862        -0.174598        -0.984962
 H        -0.673836        -0.057990         0.693555
 H         1.844349         0.626146         2.414495
 H         1.664370        -1.064333         2.048604
 H         3.984699        -0.715194         1.987853
 H         2.472106         2.458201         0.829300
 H         4.028734         2.561080        -0.386135
 H         2.229044         1.102619        -1.668077
 H         4.016053        -0.967430        -0.800823
