19
Iteration:  1148
 C        -0.067794         0.206281        -0.034305
 C         1.422515         0.057182         0.197257
 C         1.925371         0.012945         1.627969
 C         3.490692        -0.139280         1.313919
 O         4.035664         1.209862         1.229904
 C         3.385468         1.841011         0.098030
 C         2.507553         0.788298        -0.617599
 C         3.266671        -0.480028        -0.253118
 O         2.031309        -1.249676        -0.332298
 H        -0.561147         0.824828         0.798934
 H        -0.188009         0.815777        -1.010418
 H        -0.507110        -0.810868        -0.085095
 H         1.788635         0.971009         2.102516
 H         1.467966        -0.709849         2.175497
 H         4.005880        -0.813282         2.003309
 H         2.859016         2.692031         0.470083
 H         4.151784         2.291103        -0.568611
 H         2.356359         0.930406        -1.731667
 H         4.096301        -0.930419        -0.892695
