19
Iteration:  4054
 C        -0.019649         0.288114        -0.060499
 C         1.431285         0.013317         0.158218
 C         2.022642        -0.214006         1.742532
 C         3.511877        -0.156917         1.199074
 O         3.974799         1.251109         1.223531
 C         3.323171         1.955182         0.156745
 C         2.572159         0.790071        -0.603585
 C         3.255718        -0.497244        -0.324153
 O         1.961981        -1.205429        -0.291075
 H        -0.259387         1.366577        -0.396839
 H        -0.500429        -0.115222        -1.005036
 H        -0.633871         0.056548         0.835983
 H         1.826643         0.640424         2.406548
 H         1.590988        -1.076112         2.217961
 H         4.367439        -0.776184         1.689243
 H         2.578946         2.638265         0.584122
 H         4.182300         2.399391        -0.397429
 H         2.251613         1.040187        -1.638114
 H         4.145289        -0.984557        -0.827279
