19
Iteration:   713
 C        -0.142361         0.008868        -0.046772
 C         1.397990         0.049637         0.128887
 C         1.956425        -0.169161         1.585518
 C         3.476592        -0.228671         1.173757
 O         4.111051         1.097847         1.360128
 C         3.403258         1.940042         0.371183
 C         2.587350         0.964876        -0.438622
 C         3.253566        -0.349971        -0.354587
 O         2.001514        -1.020499        -0.535705
 H        -0.448275        -0.680786        -0.931473
 H        -0.763173        -0.128598         0.928010
 H        -0.638198         0.935337        -0.457074
 H         1.782542         0.605807         2.240155
 H         1.513110        -1.117055         2.001608
 H         4.039373        -0.993045         1.760669
 H         2.676405         2.737203         0.798002
 H         4.057515         2.335965        -0.421564
 H         2.513665         1.343860        -1.515280
 H         3.985065        -0.794143        -1.018780
