19
Iteration:  2699charge 0 multiplicity 1
 C        -0.141770         0.135304        -0.047947
 C         1.390524         0.057990         0.151878
 C         1.974246         0.067051         1.650327
 C         3.416690        -0.164076         1.254941
 O         4.072494         1.203522         1.205691
 C         3.392716         1.865642         0.097143
 C         2.661883         0.827465        -0.651770
 C         3.236856        -0.520690        -0.251603
 O         2.013896        -1.228064        -0.253426
 H        -0.633520         0.797931         0.746906
 H        -0.554203         0.370828        -0.999609
 H        -0.366613        -0.888084         0.308188
 H         1.851122         1.045152         2.085407
 H         1.582120        -0.635394         2.513763
 H         4.008210        -0.819681         1.869310
 H         2.621338         2.729798         0.435114
 H         4.157630         2.400866        -0.586854
 H         2.349422         1.131579        -1.690627
 H         4.137973        -0.903468        -0.748004
