19
Iteration:  4860
 C         0.024522         0.456102         0.050333
 C         1.447226         0.051937         0.188974
 C         1.990158         0.090071         1.689655
 C         3.426405         0.024962         1.342272
 O         3.911988         1.365170         0.997752
 C         3.316505         1.790386        -0.174789
 C         2.625363         0.491053        -0.753943
 C         3.315584        -0.666073        -0.037742
 O         1.972946        -1.368893        -0.113651
 H        -0.200261         1.086185        -0.805493
 H        -0.537967        -0.398769         0.114395
 H        -0.158754         1.092932         0.944133
 H         1.589198         0.951857         2.303743
 H         1.636635        -0.829009         2.111551
 H         4.158983        -0.556323         2.039000
 H         2.561561         2.571174         0.028574
 H         4.136748         2.102570        -0.878417
 H         2.444863         0.551800        -1.847423
 H         4.162854        -1.312928        -0.207425
