19
Iteration:  2800charge 0 multiplicity 1
 C        -0.023495         0.196465        -0.015078
 C         1.390650        -0.032486         0.179226
 C         2.008121         0.054747         1.564922
 C         3.405550        -0.065844         1.312597
 O         4.109408         1.145978         1.133416
 C         3.309271         1.913470         0.183227
 C         2.594009         0.842818        -0.608635
 C         3.230673        -0.518729        -0.271871
 O         2.009796        -1.274492        -0.286316
 H        -0.150369         1.225924        -0.040260
 H        -0.277035        -0.295040        -0.970483
 H        -0.796347        -0.201088         0.709010
 H         1.598310         1.000629         2.042485
 H         1.509680        -0.694291         2.242295
 H         4.064057        -0.650388         1.995876
 H         2.459114         2.515961         0.739558
 H         3.938565         2.670401        -0.403478
 H         2.424514         0.932310        -1.608098
 H         4.057146        -1.075366        -0.789148
