19
Iteration:   672
 C        -0.049277         0.136090        -0.109070
 C         1.388022         0.050846         0.166613
 C         1.950957        -0.131588         1.567450
 C         3.483903        -0.267376         1.145982
 O         4.146797         1.056305         1.236104
 C         3.203175         1.918876         0.494135
 C         2.525666         1.008691        -0.415214
 C         3.331071        -0.393103        -0.368457
 O         2.019270        -1.117393        -0.507481
 H        -0.694950        -0.767084         0.170974
 H        -0.468965         0.973943         0.546096
 H        -0.240351         0.299898        -1.126574
 H         1.863781         0.807151         2.205932
 H         1.529040        -1.091329         2.103182
 H         4.163464        -0.936769         1.596011
 H         2.562925         2.348636         1.284560
 H         3.839158         2.646526        -0.070061
 H         2.366582         1.449984        -1.444269
 H         4.131417        -0.561807        -1.100594
