19
Iteration:  2202charge 0 multiplicity 1
 C        -0.144393         0.122506        -0.136161
 C         1.418614         0.066881         0.198787
 C         2.050461         0.043725         1.653263
 C         3.436366        -0.144508         1.287429
 O         4.129451         1.141923         1.089216
 C         3.351833         1.901316         0.204635
 C         2.595888         0.823818        -0.506523
 C         3.212364        -0.483111        -0.182260
 O         1.980929        -1.210849        -0.350691
 H        -0.283543         1.152998        -0.670890
 H        -0.284068        -0.604510        -0.954037
 H        -0.941902        -0.110286         0.710464
 H         1.809381         1.012225         2.270610
 H         1.518248        -0.743498         2.235559
 H         3.998050        -0.887468         1.897241
 H         2.655257         2.634921         0.604622
 H         3.970807         2.558586        -0.441729
 H         2.271812         1.063439        -1.494753
 H         4.177958        -0.880478        -0.598581
