19
Iteration:  3754
 C        -0.073584         0.153390        -0.001239
 C         1.437955         0.075514         0.193178
 C         1.950420         0.018709         1.610593
 C         3.469975        -0.210926         1.229979
 O         4.104952         1.187776         1.197181
 C         3.297420         1.943348         0.261555
 C         2.631488         0.825750        -0.553901
 C         3.255618        -0.571143        -0.272584
 O         1.961796        -1.170173        -0.413546
 H        -0.254940         0.149617        -1.135427
 H        -0.675645        -0.726142         0.301998
 H        -0.620399         1.083126         0.434682
 H         1.823543         0.922696         2.159664
 H         1.494069        -1.041849         1.889589
 H         4.173635        -0.618484         2.100583
 H         2.491433         2.507246         0.818251
 H         3.882888         2.645676        -0.361454
 H         2.685603         0.951553        -1.651202
 H         4.010500        -0.907220        -1.099518
