19
Iteration:  4858charge 0 multiplicity 1
 C         0.025514         0.465244         0.052761
 C         1.447423         0.038818         0.184085
 C         1.977622         0.106800         1.688207
 C         3.430337         0.021885         1.353940
 O         3.907932         1.356528         1.014158
 C         3.307984         1.796498        -0.198933
 C         2.644399         0.472229        -0.759337
 C         3.303950        -0.651588        -0.035679
 O         1.979383        -1.366631        -0.112652
 H        -0.233694         1.128061        -0.820131
 H        -0.599604        -0.382020         0.106922
 H        -0.107569         1.063857         0.913585
 H         1.668039         0.972856         2.353695
 H         1.676888        -0.892796         2.132542
 H         4.224944        -0.596742         2.030846
 H         2.539130         2.529088         0.040782
 H         4.094587         2.121960        -0.878749
 H         2.389089         0.608497        -1.826397
 H         4.205958        -1.328402        -0.291786
