19
Iteration:  1052
 C        -0.134512         0.144367        -0.082581
 C         1.426817         0.066179         0.188223
 C         1.906294         0.041794         1.613931
 C         3.442652        -0.148657         1.214502
 O         4.121959         1.156970         1.228666
 C         3.363217         1.823088         0.220769
 C         2.519902         0.840484        -0.545031
 C         3.313019        -0.480457        -0.272224
 O         2.023554        -1.162893        -0.348432
 H        -0.546731         0.953126        -0.719764
 H        -0.377601        -0.847458        -0.690927
 H        -0.772069         0.050033         0.713741
 H         1.891846         0.952801         2.199134
 H         1.522888        -0.935157         2.331857
 H         4.003537        -0.762171         1.942135
 H         2.946530         2.836325         0.516704
 H         4.130756         2.232521        -0.506878
 H         2.286861         1.192861        -1.567364
 H         4.246196        -0.954745        -0.745803
