19
Iteration:   116
 C        -0.050116         0.363258         0.152664
 C         1.502483        -0.048193         0.120366
 C         2.057419        -0.698225         1.371702
 C         3.601829        -0.322334         1.003406
 O         3.903152         0.941078         1.472396
 C         3.049486         1.874875         0.875225
 C         2.496318         1.107185        -0.328591
 C         3.408212        -0.112941        -0.574654
 O         2.089963        -0.873302        -0.924617
 H        -0.217082         1.008170        -0.793754
 H        -0.659965        -0.510653         0.366681
 H         0.068357         1.083545         0.959407
 H         1.807293        -0.173922         2.412249
 H         1.723717        -1.776428         1.358002
 H         4.395663        -0.985296         1.333271
 H         2.160035         2.080755         1.495962
 H         3.574103         2.771625         0.709265
 H         1.951366         1.741095        -1.165470
 H         4.228039        -0.222860        -1.292260
