19
Iteration:   611charge 0 multiplicity 1
 C         0.035030         0.388202         0.061887
 C         1.454055         0.001762         0.168590
 C         2.059200        -0.398538         1.608341
 C         3.444582        -0.224614         1.152984
 O         3.857571         1.092611         1.420345
 C         3.231814         1.924244         0.353533
 C         2.497652         0.928024        -0.542465
 C         3.285229        -0.353730        -0.405642
 O         2.119141        -1.127534        -0.618952
 H        -0.107663         0.878397         1.004497
 H        -0.149895         1.067207        -0.741783
 H        -0.734878        -0.496669        -0.091968
 H         1.842370         0.295755         2.416702
 H         1.905216        -1.345274         1.897864
 H         4.207317        -0.905448         1.565910
 H         2.514405         2.690214         0.756519
 H         3.953786         2.480207        -0.245179
 H         2.389992         1.324490        -1.501899
 H         4.163204        -0.554811        -1.047022
