19
Iteration:  3450charge 0 multiplicity 1
 C        -0.106261         0.144239        -0.048030
 C         1.437067         0.052118         0.155636
 C         1.920020         0.085295         1.565250
 C         3.507738        -0.068132         1.268287
 O         4.122080         1.179652         1.098181
 C         3.359199         1.884316         0.218032
 C         2.578710         0.834047        -0.612922
 C         3.291832        -0.628065        -0.091853
 O         1.885571        -1.218209        -0.350270
 H        -0.590036         0.526329         0.842925
 H        -0.292388         0.799671        -0.824736
 H        -0.340820        -0.863391        -0.383885
 H         1.776256         0.910389         2.083700
 H         1.561008        -0.780865         2.123215
 H         4.008384        -0.517802         2.105174
 H         2.723908         2.556711         0.789548
 H         4.069076         2.527511        -0.354007
 H         2.644315         0.980425        -1.641284
 H         4.162500        -1.105626        -0.559343
