19
Iteration:  3633
 C        -0.079160         0.092663        -0.087379
 C         1.355025         0.027844         0.146107
 C         1.869300         0.031032         1.616052
 C         3.507246        -0.108312         1.228725
 O         4.160785         1.116748         1.228764
 C         3.418956         1.908208         0.179171
 C         2.496896         0.885051        -0.471718
 C         3.278557        -0.477026        -0.217448
 O         1.984780        -1.184844        -0.395624
 H        -0.387229         0.118556        -1.166232
 H        -0.490784        -0.799145         0.303057
 H        -0.603631         0.877068         0.486577
 H         1.803773         1.065348         1.993897
 H         1.583180        -0.770672         2.399643
 H         3.925649        -0.953120         1.811820
 H         2.846761         2.679389         0.711565
 H         4.003064         2.394029        -0.591098
 H         2.435635         1.079738        -1.522685
 H         4.102590        -0.852003        -0.872533
