19
Iteration:  4135charge 0 multiplicity 1
 C        -0.064669         0.108564        -0.147646
 C         1.387681         0.133165         0.224673
 C         2.002363         0.020482         1.659052
 C         3.568003        -0.130385         1.271672
 O         4.181527         1.132663         1.181051
 C         3.288831         1.870570         0.139294
 C         2.477671         0.841176        -0.538633
 C         3.185565        -0.494517        -0.286738
 O         1.961653        -1.188692        -0.274636
 H        -0.640952         0.347218         0.722210
 H        -0.322845         0.678593        -1.031496
 H        -0.387420        -0.912875        -0.416276
 H         1.829377         1.027013         2.138445
 H         1.606446        -0.846225         2.268298
 H         4.131153        -0.768948         1.917084
 H         2.739464         2.629141         0.702773
 H         3.966705         2.437169        -0.493405
 H         2.362871         1.065173        -1.625595
 H         3.988427        -0.884635        -0.935128
