19
Iteration:  1885charge 0 multiplicity 1
 C        -0.096972         0.201362         0.031539
 C         1.438067         0.056937         0.190562
 C         1.969925        -0.045601         1.583318
 C         3.439991        -0.136231         1.317998
 O         4.020864         1.212523         1.177007
 C         3.351526         1.898357         0.098918
 C         2.588760         0.802322        -0.582031
 C         3.286480        -0.559796        -0.238604
 O         2.009403        -1.163433        -0.348072
 H        -0.520281         1.117577         0.515680
 H        -0.255653         0.274082        -1.010827
 H        -0.628242        -0.763177         0.346597
 H         1.736825         0.693002         2.312030
 H         1.675656        -1.021512         1.932178
 H         4.028089        -0.699756         2.008583
 H         2.791178         2.790088         0.551213
 H         4.129510         2.374876        -0.618583
 H         2.456443         0.912435        -1.737445
 H         4.075142        -1.005175        -0.776267
