19
Iteration:  2115charge 0 multiplicity 1
 C         0.031525         0.374276        -0.034827
 C         1.468459        -0.001794         0.185897
 C         1.985799        -0.098332         1.594802
 C         3.479926        -0.062645         1.231966
 O         4.008852         1.236952         1.206919
 C         3.212661         1.960362         0.158271
 C         2.600714         0.697856        -0.605367
 C         3.256249        -0.570175        -0.197311
 O         1.976119        -1.301445        -0.356023
 H        -0.085510         1.462365         0.355122
 H        -0.243186         0.369266        -1.060913
 H        -0.711746        -0.238478         0.605166
 H         1.682493         0.750077         2.330426
 H         1.648610        -1.097365         1.982103
 H         4.193841        -0.580681         1.919827
 H         2.558705         2.728128         0.563117
 H         4.062416         2.479306        -0.427102
 H         2.275160         0.708822        -1.653208
 H         4.141032        -1.085525        -0.626471
