19
Iteration:  1380
 C        -0.106516         0.187768        -0.173944
 C         1.412887         0.015440         0.148723
 C         1.989050         0.115844         1.630095
 C         3.513834        -0.134076         1.219344
 O         4.138620         1.162262         1.174085
 C         3.319472         1.909252         0.217734
 C         2.473506         0.815308        -0.581379
 C         3.279622        -0.531248        -0.235818
 O         1.986714        -1.264554        -0.222565
 H        -0.552591         0.545338         0.739739
 H        -0.553104         0.840842        -1.028740
 H        -0.621906        -0.717839        -0.199134
 H         1.963114         1.027564         2.147878
 H         1.836809        -0.739365         2.299754
 H         3.993024        -0.771267         1.995391
 H         2.878881         2.710045         0.764637
 H         3.923071         2.428058        -0.595443
 H         2.259139         0.908464        -1.606257
 H         3.996202        -1.074200        -0.832019
