19
Iteration:  3747charge 0 multiplicity 1
 C        -0.068837         0.219432        -0.063407
 C         1.414872         0.088651         0.168897
 C         1.976239        -0.008719         1.650154
 C         3.506710        -0.198268         1.256633
 O         4.082622         1.188196         1.219576
 C         3.223551         1.915124         0.253656
 C         2.629939         0.817484        -0.564169
 C         3.245931        -0.571739        -0.357432
 O         1.993905        -1.181901        -0.363211
 H        -0.243585         0.023954        -1.067563
 H        -0.601366        -0.562642         0.509458
 H        -0.393681         1.159237         0.224286
 H         1.831985         0.879626         2.316395
 H         1.629258        -0.961397         2.077801
 H         4.186896        -0.819579         1.727775
 H         2.513711         2.497525         0.817427
 H         3.877747         2.684518        -0.183367
 H         2.526980         0.818368        -1.661597
 H         4.014731        -0.899512        -0.989267
