19
Iteration:  3924
 C        -0.077671         0.072106        -0.113907
 C         1.353555         0.108385         0.250888
 C         1.969726        -0.071968         1.696031
 C         3.460526        -0.036343         1.200627
 O         4.118831         1.184781         1.201173
 C         3.451933         1.903262         0.056662
 C         2.579708         0.804107        -0.516505
 C         3.209367        -0.482996        -0.270173
 O         1.962744        -1.145937        -0.283581
 H        -0.706661         0.447882         0.742169
 H        -0.350654         0.590601        -1.022598
 H        -0.514331        -0.883055        -0.379565
 H         1.515088         0.721675         2.520182
 H         1.522101        -1.001889         2.066566
 H         3.994770        -0.861041         1.857185
 H         3.040634         2.781581         0.553815
 H         4.298702         2.246195        -0.605572
 H         2.170023         0.774621        -1.539902
 H         4.069573        -0.925274        -0.907708
