19
Iteration:  1887
 C        -0.085749         0.212218         0.028028
 C         1.451816         0.064525         0.191905
 C         1.967596        -0.070654         1.585006
 C         3.427354        -0.125103         1.316169
 O         4.013893         1.211539         1.167476
 C         3.354767         1.903519         0.099783
 C         2.594161         0.795854        -0.586431
 C         3.284689        -0.557339        -0.248130
 O         2.009407        -1.161589        -0.338269
 H        -0.430753         1.111895         0.500530
 H        -0.326281         0.277285        -1.021454
 H        -0.699507        -0.745802         0.382754
 H         1.757796         0.674404         2.376942
 H         1.672571        -0.985402         1.947841
 H         4.038282        -0.719430         2.035155
 H         2.707829         2.704506         0.535226
 H         4.061395         2.330333        -0.576373
 H         2.478813         0.899799        -1.718555
 H         4.138238        -0.956349        -0.760077
