19
Iteration:   630charge 0 multiplicity 1
 C        -0.026161         0.380305        -0.003971
 C         1.476652         0.000889         0.213161
 C         1.996894        -0.387255         1.547397
 C         3.622839        -0.274030         1.134879
 O         3.930081         1.154706         1.324627
 C         3.155555         1.978199         0.414307
 C         2.534012         0.922502        -0.445136
 C         3.340292        -0.393221        -0.385818
 O         2.018761        -1.148451        -0.574374
 H        -0.544798         0.565912         0.924487
 H         0.019424         1.344044        -0.493812
 H        -0.392247        -0.339988        -0.678300
 H         1.814071         0.358378         2.414248
 H         1.527545        -1.414940         1.706593
 H         4.240719        -0.873291         1.726139
 H         2.401480         2.585035         0.886591
 H         3.970499         2.559967        -0.127553
 H         2.115394         1.225975        -1.449110
 H         4.171655        -0.778318        -1.008443
