19
Iteration:  2117
 C         0.041334         0.370514        -0.021854
 C         1.464733        -0.006244         0.187448
 C         1.979035        -0.098707         1.599111
 C         3.480834        -0.054606         1.230400
 O         4.008768         1.242113         1.199914
 C         3.227919         1.952862         0.160870
 C         2.591050         0.705957        -0.601651
 C         3.258207        -0.566720        -0.195503
 O         1.963663        -1.295497        -0.368110
 H        -0.089076         1.341648         0.283755
 H        -0.258698         0.288958        -1.059790
 H        -0.657567        -0.218346         0.606722
 H         1.696086         0.728466         2.326808
 H         1.687662        -1.032692         1.954577
 H         4.126185        -0.604681         2.006149
 H         2.527822         2.698093         0.550925
 H         4.072749         2.422479        -0.427554
 H         2.369711         0.769815        -1.629063
 H         4.153309        -1.115962        -0.623945
