19
Iteration:  3618charge 0 multiplicity 1
 C        -0.092763         0.090344        -0.150726
 C         1.404276         0.046575         0.238434
 C         1.920141         0.001865         1.641201
 C         3.391689        -0.188947         1.323924
 O         4.243872         1.204081         1.115478
 C         3.390501         1.923167         0.261400
 C         2.558114         0.891622        -0.540387
 C         3.193744        -0.491631        -0.276329
 O         1.977554        -1.204540        -0.354741
 H        -0.138942         0.463525        -1.202831
 H        -0.562595        -0.997711        -0.135391
 H        -0.662933         0.743961         0.541243
 H         1.606378         0.781088         2.383293
 H         1.401118        -0.821544         1.960823
 H         4.113711        -0.664515         1.930196
 H         2.897558         2.815202         0.713546
 H         4.143176         2.235012        -0.463672
 H         2.106363         1.095325        -1.532697
 H         4.077594        -0.854470        -0.730568
