19
Iteration:  2390
 C         0.056385         0.317665        -0.085977
 C         1.447289         0.022102         0.220786
 C         2.015954        -0.050194         1.643243
 C         3.517974        -0.146496         1.264339
 O         4.030813         1.204490         1.185117
 C         3.249773         1.915484         0.103056
 C         2.534150         0.749040        -0.567008
 C         3.263262        -0.491159        -0.237724
 O         1.936042        -1.267500        -0.324178
 H        -0.230639         1.341883        -0.319631
 H        -0.170604        -0.315724        -1.038030
 H        -0.572590        -0.106932         0.745972
 H         1.862345         0.944675         2.216464
 H         1.529054        -0.761418         2.290750
 H         4.147402        -0.733302         1.923086
 H         2.465392         2.574713         0.664689
 H         3.988695         2.479336        -0.524706
 H         2.101444         0.808453        -1.501428
 H         4.099582        -0.960617        -0.715330
