19
Iteration:  4205
 C        -0.002118         0.380423         0.134242
 C         1.445345        -0.007646         0.191614
 C         1.966468        -0.003602         1.582923
 C         3.450597        -0.032971         1.205513
 O         3.905824         1.202672         1.214762
 C         3.263970         1.857412         0.054655
 C         2.675912         0.729638        -0.633155
 C         3.282585        -0.572847        -0.234222
 O         2.070215        -1.328988        -0.347261
 H        -0.484229         0.077856         1.085280
 H        -0.304242         1.423797        -0.070880
 H        -0.658838        -0.156140        -0.543974
 H         1.880277         1.018332         1.977167
 H         1.509558        -0.759221         2.281318
 H         4.147517        -0.609427         1.842808
 H         2.573427         2.624270         0.431127
 H         4.073331         2.424612        -0.394324
 H         2.306909         0.803508        -1.665789
 H         4.054741        -0.976392        -0.838589
