19
Iteration:  2422charge 0 multiplicity 1
 C        -0.045636         0.484749        -0.059919
 C         1.433911         0.020666         0.193608
 C         2.054035        -0.188386         1.663724
 C         3.480697        -0.122688         1.292661
 O         3.931332         1.294124         1.262866
 C         3.294073         1.861720         0.014873
 C         2.552807         0.717920        -0.674923
 C         3.276275        -0.522110        -0.249779
 O         2.051765        -1.318035        -0.293425
 H        -0.148035         1.551712         0.018668
 H        -0.531769        -0.019997        -0.998745
 H        -0.485420         0.043783         0.893020
 H         1.881500         0.719894         2.449617
 H         1.713901        -1.127891         2.053566
 H         4.214905        -0.627128         1.906372
 H         2.492367         2.730741         0.355716
 H         4.089828         2.363701        -0.546478
 H         2.068458         0.869588        -1.547450
 H         4.126805        -1.084525        -0.652524
