19
Iteration:  1703
 C        -0.125171         0.136963        -0.018549
 C         1.451256         0.059503         0.155960
 C         1.956585         0.005998         1.629233
 C         3.448250        -0.152107         1.272359
 O         4.072474         1.135481         1.231579
 C         3.377761         1.940931         0.132712
 C         2.568737         0.903852        -0.550572
 C         3.261801        -0.474049        -0.338423
 O         2.001961        -1.273281        -0.313039
 H        -0.434293         1.087344        -0.237966
 H        -0.337648        -0.457161        -0.841942
 H        -0.822458        -0.335878         0.769704
 H         1.911762         1.023073         2.277092
 H         1.384822        -0.691156         2.172983
 H         4.047007        -0.812574         1.883961
 H         2.755154         2.748157         0.630090
 H         4.309080         2.338445        -0.530615
 H         2.408723         1.084408        -1.601891
 H         4.024880        -0.773439        -1.002798
