19
Iteration:  2830charge 0 multiplicity 1
 C        -0.122418         0.023830        -0.130905
 C         1.293369         0.103846         0.249686
 C         1.953140         0.103485         1.703770
 C         3.517308        -0.112152         1.270208
 O         4.196631         1.141050         1.178894
 C         3.404309         1.938077         0.072867
 C         2.586004         0.856309        -0.554638
 C         3.180730        -0.493734        -0.229062
 O         1.972795        -1.216966        -0.299751
 H        -0.697873         0.971843         0.186966
 H        -0.214394        -0.040527        -1.175157
 H        -0.603574        -0.865571         0.287662
 H         1.653119         0.971241         2.229556
 H         1.505712        -0.885580         2.068225
 H         4.188715        -0.755714         1.802222
 H         2.775447         2.589732         0.567184
 H         4.162486         2.368886        -0.585547
 H         2.457399         0.775821        -1.640574
 H         4.022862        -0.884156        -0.778699
