19
Iteration:  2931
 C        -0.019350         0.340961        -0.097359
 C         1.422541         0.020063         0.187282
 C         2.014004         0.016216         1.717819
 C         3.489483        -0.065243         1.228571
 O         3.976101         1.194625         1.172046
 C         3.190320         1.834431         0.142331
 C         2.614182         0.729055        -0.617085
 C         3.315521        -0.564913        -0.229309
 O         2.033054        -1.279533        -0.274702
 H        -0.099359         1.373993         0.152696
 H        -0.224345         0.360951        -1.209779
 H        -0.803604        -0.201594         0.492735
 H         1.913754         0.929369         2.403132
 H         1.572821        -0.859784         2.222415
 H         4.257093        -0.760141         1.703022
 H         2.516927         2.589497         0.516852
 H         3.817108         2.543861        -0.450166
 H         2.305672         0.833857        -1.593844
 H         3.984733        -1.121387        -0.972217
