19
Iteration:   853charge 0 multiplicity 1
 C        -0.097312         0.005043        -0.080601
 C         1.426120         0.055385         0.178989
 C         1.997281        -0.086099         1.586797
 C         3.398510        -0.213764         1.204205
 O         4.101592         1.089690         1.273774
 C         3.415527         1.953455         0.309165
 C         2.547096         0.978064        -0.486803
 C         3.242242        -0.397917        -0.295560
 O         1.964289        -1.082587        -0.441186
 H        -0.681462         0.156722         0.897133
 H        -0.298981         0.804934        -0.805058
 H        -0.260389        -0.941870        -0.617556
 H         1.537143         0.873010         2.162319
 H         1.532878        -1.048329         2.028910
 H         4.078326        -0.789964         1.907291
 H         3.084925         2.820732         0.849024
 H         4.196822         2.157243        -0.467626
 H         2.371282         1.153832        -1.640055
 H         3.938526        -0.762750        -1.021885
