19
Iteration:  1954
 C         0.010652         0.355460        -0.067166
 C         1.450157         0.033813         0.204501
 C         2.044571        -0.129939         1.672799
 C         3.441614        -0.142514         1.276211
 O         4.071790         1.188052         1.154627
 C         3.158070         1.954929         0.175284
 C         2.534356         0.811359        -0.630189
 C         3.259529        -0.541924        -0.266230
 O         2.041248        -1.280545        -0.297175
 H         0.061199         1.375159        -0.298459
 H        -0.146308        -0.108259        -1.093208
 H        -0.885600         0.133200         0.661601
 H         1.713354         0.764287         2.257599
 H         1.579440        -0.991435         2.039872
 H         4.161355        -0.734638         1.962468
 H         2.390505         2.562091         0.745650
 H         3.810580         2.619881        -0.325145
 H         2.293228         0.894476        -1.679866
 H         4.136361        -1.070525        -0.765203
