19
Iteration:  3203charge 0 multiplicity 1
 C        -0.122681         0.355353        -0.070128
 C         1.433776         0.046111         0.201783
 C         1.987801         0.046188         1.648326
 C         3.513630        -0.080520         1.332146
 O         4.069564         1.248726         1.145696
 C         3.271417         1.838428         0.099296
 C         2.568747         0.716695        -0.681103
 C         3.318810        -0.613634        -0.205129
 O         2.023452        -1.304807        -0.248153
 H        -0.838125        -0.052352         0.605027
 H        -0.261497         1.450440        -0.295898
 H        -0.280181        -0.227211        -1.020751
 H         1.524545         0.930999         2.197541
 H         1.569446        -0.832967         2.135330
 H         4.021992        -0.622483         2.108965
 H         2.483657         2.438771         0.643213
 H         3.819960         2.438674        -0.597950
 H         2.393717         0.858719        -1.693644
 H         4.133911        -1.128314        -0.736007
