19
Iteration:   191charge 0 multiplicity 1
 C        -0.089286         0.033216        -0.070008
 C         1.394608         0.081467         0.210758
 C         1.991755        -0.512275         1.504811
 C         3.516230        -0.302906         1.021329
 O         4.107986         0.889347         1.414248
 C         3.307571         1.934071         0.811474
 C         2.424708         1.176584        -0.233682
 C         3.232758        -0.113783        -0.569117
 O         2.061822        -0.863035        -0.863491
 H        -0.714843         0.266335         0.784833
 H        -0.267630         0.684029        -0.918871
 H        -0.114787        -1.023963        -0.370827
 H         1.841521         0.141839         2.345903
 H         1.832932        -1.563398         1.773283
 H         3.986195        -1.169098         1.469879
 H         2.838113         2.419672         1.736338
 H         3.950819         2.618240         0.318970
 H         2.206135         1.805111        -1.207369
 H         4.091688        -0.086413        -1.256742
