19
Iteration:  2292
 C        -0.030130         0.249180        -0.028320
 C         1.449850         0.059811         0.158692
 C         1.998575        -0.064304         1.648202
 C         3.476485        -0.002961         1.294988
 O         3.988341         1.238996         1.212937
 C         3.406991         1.885920         0.048603
 C         2.553753         0.803384        -0.579066
 C         3.258774        -0.606745        -0.262029
 O         1.933644        -1.281982        -0.262401
 H        -0.402798         0.844300         0.774079
 H        -0.351264         0.837715        -0.998759
 H        -0.551997        -0.769153        -0.114848
 H         1.382338         0.580009         2.391663
 H         1.656079        -1.050165         1.821682
 H         4.270854        -0.589524         1.802256
 H         2.953104         2.774025         0.375275
 H         4.261779         2.260320        -0.576946
 H         2.339136         1.051877        -1.559567
 H         4.023446        -1.079643        -0.884443
