19
Iteration:  1628
 C        -0.020364         0.307527        -0.067911
 C         1.423394         0.018912         0.192247
 C         1.994261        -0.041472         1.635573
 C         3.522366        -0.108635         1.336238
 O         4.051080         1.234881         1.257867
 C         3.300591         1.915622         0.070503
 C         2.555017         0.739346        -0.657913
 C         3.266962        -0.498489        -0.271248
 O         1.946273        -1.328198        -0.305072
 H        -0.471655         0.847337         0.730812
 H        -0.251070         0.872474        -0.992841
 H        -0.661999        -0.658592        -0.239978
 H         1.716969         0.806910         2.356081
 H         1.697729        -0.882002         2.161383
 H         4.100813        -0.679174         2.053910
 H         2.669508         2.691800         0.471244
 H         4.054756         2.536229        -0.496701
 H         2.340060         0.866469        -1.645369
 H         4.048030        -0.844366        -0.884688
