19
Iteration:  4186
 C        -0.032777         0.391312         0.083016
 C         1.435780        -0.031078         0.137576
 C         2.011443         0.012250         1.610163
 C         3.495150        -0.247594         1.294843
 O         3.976076         1.315161         1.215351
 C         3.241456         1.892405         0.093622
 C         2.486269         0.732249        -0.645261
 C         3.337921        -0.538693        -0.299404
 O         2.060296        -1.341092        -0.303101
 H        -0.578208         0.566332         1.111942
 H         0.140081         1.243090        -0.537554
 H        -0.754462        -0.133324        -0.650514
 H         1.837120         0.908527         2.211366
 H         1.549073        -0.782993         2.028449
 H         4.136013        -0.812657         1.932744
 H         2.606056         2.705739         0.541357
 H         4.039742         2.304151        -0.583897
 H         2.293658         0.927509        -1.608010
 H         4.152890        -0.985641        -0.730133
