19
Iteration:  2956
 C        -0.025789         0.250560        -0.141395
 C         1.428512        -0.020019         0.198468
 C         1.976525        -0.014904         1.624704
 C         3.479873        -0.090910         1.229612
 O         4.089536         1.217847         1.211628
 C         3.351870         1.899563         0.110159
 C         2.518048         0.824769        -0.530559
 C         3.326986        -0.478109        -0.238465
 O         1.917726        -1.323491        -0.237325
 H        -0.319582         1.213902        -0.476490
 H        -0.229492        -0.409637        -1.023555
 H        -0.645453        -0.101950         0.654343
 H         1.739455         0.894645         2.280166
 H         1.597464        -0.879654         2.138562
 H         4.091736        -0.825321         1.701187
 H         2.738940         2.716203         0.515909
 H         3.939725         2.532666        -0.552967
 H         1.898511         1.123367        -1.435012
 H         4.110128        -0.965943        -0.808842
