19
Iteration:   218
 C        -0.127863         0.035274        -0.068014
 C         1.386853         0.044147         0.100273
 C         2.050596        -0.398532         1.458244
 C         3.570485        -0.322469         0.968934
 O         4.103506         0.888974         1.436410
 C         3.242080         1.889409         0.842405
 C         2.444297         1.186852        -0.293239
 C         3.290077        -0.148445        -0.454374
 O         2.015351        -0.889529        -0.819126
 H        -0.594106        -0.459614         0.869571
 H        -0.461845         1.106487         0.018420
 H        -0.343035        -0.421046        -1.069906
 H         1.999220         0.428319         2.310703
 H         1.781744        -1.401333         1.859566
 H         4.139703        -1.222730         1.314643
 H         2.656381         2.261148         1.652111
 H         3.830286         2.783925         0.404674
 H         2.324424         1.755076        -1.189142
 H         4.194539        -0.190583        -1.105419
