19
Iteration:   304charge 0 multiplicity 1
 C         0.009392         0.290903         0.077819
 C         1.452515        -0.064765         0.142559
 C         2.108735        -0.525001         1.429286
 C         3.540469        -0.362955         1.048905
 O         3.877344         0.957368         1.495664
 C         3.204874         2.004241         0.613043
 C         2.491094         1.119400        -0.374198
 C         3.268801        -0.200964        -0.483810
 O         2.072908        -0.964152        -0.769597
 H        -0.383605         0.537587        -0.961789
 H        -0.678209        -0.432364         0.569594
 H        -0.005655         1.153595         0.749890
 H         1.706812        -0.044585         2.406200
 H         1.948552        -1.616019         1.451834
 H         4.372487        -1.009569         1.447624
 H         2.447173         2.566694         1.297541
 H         3.909224         2.629575         0.125650
 H         2.119334         1.575327        -1.403856
 H         4.153660        -0.319348        -1.145151
