19
Iteration:  2097
 C        -0.019638         0.504557        -0.074485
 C         1.435549         0.004583         0.181766
 C         1.988304        -0.108553         1.682943
 C         3.528976        -0.181191         1.241720
 O         3.947070         1.250772         1.184654
 C         3.180822         1.869967         0.112876
 C         2.543455         0.760554        -0.632701
 C         3.323868        -0.553117        -0.277592
 O         2.099347        -1.329591        -0.232090
 H        -0.200537         1.278868         0.571036
 H        -0.176701         0.858201        -1.132097
 H        -0.773054        -0.225187         0.122997
 H         1.906703         0.765774         2.315469
 H         1.591121        -0.932432         2.145918
 H         4.131897        -0.835945         1.987662
 H         2.297529         2.372818         0.567634
 H         3.822344         2.518640        -0.465595
 H         2.452829         1.005875        -1.665834
 H         4.137788        -1.050536        -0.894394
