19
Iteration:  4952charge 0 multiplicity 1
 C        -0.232490         0.104305        -0.057363
 C         1.406410         0.111641         0.245477
 C         2.011591         0.324405         1.589756
 C         3.474424         0.013743         1.351578
 O         4.216568         1.147283         0.961250
 C         3.338852         1.864957        -0.009203
 C         2.605657         0.688748        -0.639005
 C         3.212878        -0.625412        -0.118347
 O         1.996349        -1.302691        -0.114407
 H        -0.547447        -0.765933        -0.706753
 H        -0.888212         0.074344         0.930517
 H        -0.511056         0.998076        -0.603772
 H         1.615568         1.213723         2.034103
 H         1.618367        -0.554766         2.211337
 H         4.020050        -0.449478         2.141519
 H         2.531572         2.476990         0.479578
 H         4.097436         2.361612        -0.626307
 H         2.376375         0.524429        -1.707775
 H         4.188739        -1.118673        -0.451108
