19
Iteration:  3564charge 0 multiplicity 1
 C         0.028597         0.402700         0.013153
 C         1.480095        -0.055952         0.177163
 C         1.977911         0.002247         1.644947
 C         3.436753        -0.055437         1.232834
 O         3.963591         1.181478         1.258743
 C         3.273565         1.899274         0.208998
 C         2.601418         0.791675        -0.630631
 C         3.264303        -0.573815        -0.321961
 O         2.036263        -1.351167        -0.374732
 H        -0.107095         1.204754        -0.747425
 H        -0.627888        -0.445708        -0.470028
 H        -0.518713         0.499694         0.964958
 H         1.638396         1.027195         2.044027
 H         1.566877        -0.815044         2.201645
 H         4.166804        -0.645467         1.769449
 H         2.491612         2.595975         0.625786
 H         3.985226         2.512557        -0.327961
 H         2.228425         0.850171        -1.677241
 H         4.136519        -0.942791        -0.814401
