19
Iteration:  2679charge 0 multiplicity 1
 C        -0.015950         0.013367        -0.021799
 C         1.437749         0.096160         0.171254
 C         1.901019         0.177199         1.568568
 C         3.445043        -0.050063         1.271245
 O         4.173976         1.141808         1.111243
 C         3.391502         1.913394         0.203759
 C         2.563316         0.817609        -0.602788
 C         3.235593        -0.564516        -0.241044
 O         1.907797        -1.207939        -0.276978
 H        -0.661958         0.654614         0.633357
 H        -0.348927         0.177975        -1.016397
 H        -0.542694        -1.009124         0.130712
 H         1.473230         0.974146         2.153801
 H         1.443623        -0.727787         2.122350
 H         3.911859        -0.764430         1.920861
 H         2.976415         2.650230         0.882263
 H         4.059759         2.529312        -0.455659
 H         2.464446         0.883544        -1.642968
 H         4.127762        -1.081079        -0.664096
