19
Iteration:  3895charge 0 multiplicity 1
 C        -0.040394         0.283347        -0.038742
 C         1.442694         0.062787         0.145968
 C         2.029826         0.007987         1.692965
 C         3.494968        -0.160762         1.240258
 O         4.005576         1.220427         1.176007
 C         3.237077         1.939618         0.154963
 C         2.614762         0.758572        -0.577949
 C         3.278943        -0.591497        -0.249807
 O         1.978388        -1.267632        -0.337106
 H        -0.321782         0.926406         0.825390
 H        -0.195453         0.792867        -1.015808
 H        -0.547679        -0.739840         0.018003
 H         1.902516         0.927346         2.155576
 H         1.446012        -0.818968         2.104770
 H         4.121634        -0.791082         1.906799
 H         2.497289         2.602672         0.656477
 H         3.925588         2.480874        -0.479227
 H         2.320560         0.848603        -1.606116
 H         4.120490        -1.013393        -0.795224
