19
Iteration:  3390
 C         0.001649         0.349699        -0.106551
 C         1.371566         0.064900         0.253616
 C         1.972852        -0.083117         1.714481
 C         3.530381        -0.065039         1.283240
 O         4.022629         1.280978         1.235560
 C         3.341499         1.899718        -0.017844
 C         2.531191         0.734364        -0.589599
 C         3.254817        -0.602300        -0.247221
 O         1.979323        -1.330540        -0.285023
 H        -0.684092        -0.179380         0.531081
 H        -0.252672         1.453438        -0.241159
 H        -0.327983        -0.144240        -1.041687
 H         1.650878         0.866573         2.390844
 H         1.604216        -1.017054         2.184148
 H         4.134588        -0.640648         2.046435
 H         2.821305         2.805873         0.382321
 H         4.214081         2.233784        -0.572642
 H         2.479060         0.788176        -1.740519
 H         3.986807        -0.891835        -1.016321
