19
Iteration:  1185
 C        -0.103537         0.003817        -0.066208
 C         1.392129         0.111756         0.212187
 C         1.877279         0.026166         1.602448
 C         3.479641        -0.126794         1.304212
 O         4.190967         1.203715         1.182098
 C         3.503310         1.896990         0.122275
 C         2.574662         0.909175        -0.578143
 C         3.226144        -0.538343        -0.235464
 O         1.891845        -1.180478        -0.292862
 H        -0.896507         0.451473         0.488640
 H        -0.331621         0.174079        -1.221646
 H        -0.348243        -1.027404        -0.164573
 H         1.706424         0.966446         2.141869
 H         1.220913        -0.781568         2.214503
 H         4.217051        -0.621807         2.067437
 H         2.981642         2.727494         0.762847
 H         4.194750         2.315242        -0.669078
 H         2.362340         1.075746        -1.584660
 H         3.883262        -0.976391        -0.988027
