19
Iteration:   988charge 0 multiplicity 1
 C        -0.043511         0.235687        -0.050878
 C         1.407883        -0.009268         0.114994
 C         1.979144        -0.022059         1.692129
 C         3.433988        -0.181992         1.220912
 O         4.039511         1.138968         1.238699
 C         3.292447         1.916097         0.220741
 C         2.560018         0.876996        -0.586530
 C         3.295783        -0.450776        -0.245217
 O         2.031539        -1.226485        -0.380872
 H        -0.409867         0.417186        -1.075596
 H        -0.597629        -0.768794         0.083040
 H        -0.254323         1.077586         0.575477
 H         1.949733         0.889373         2.246629
 H         1.458947        -0.889259         2.256695
 H         4.032920        -0.903982         1.835053
 H         2.813756         2.802256         0.664825
 H         4.008573         2.257981        -0.511856
 H         2.363455         1.027404        -1.622555
 H         4.095642        -0.824549        -0.963553
