19
Iteration:  4336charge 0 multiplicity 1
 C        -0.064456         0.344889         0.019809
 C         1.451177         0.021063         0.213133
 C         1.981563        -0.028618         1.615877
 C         3.434876        -0.053138         1.245452
 O         3.977252         1.253825         1.200432
 C         3.324982         1.884355         0.014628
 C         2.554831         0.727972        -0.596778
 C         3.302474        -0.620830        -0.258231
 O         2.040357        -1.297683        -0.271774
 H        -0.507385        -0.515429        -0.477317
 H        -0.438013         0.316277         1.005829
 H        -0.288257         1.272513        -0.396127
 H         1.797582         0.988169         2.066166
 H         1.495156        -0.794253         2.301647
 H         4.181953        -0.563724         1.815701
 H         2.880801         2.832693         0.332549
 H         4.140426         2.135183        -0.635946
 H         2.220313         0.797748        -1.589601
 H         4.115632        -1.016544        -0.721361
