19
Iteration:   291charge 0 multiplicity 1
 C        -0.025077         0.369825         0.133100
 C         1.462160         0.013057         0.166644
 C         2.049838        -0.661920         1.470313
 C         3.527423        -0.262566         1.022259
 O         3.900399         1.052904         1.534672
 C         3.183240         1.893536         0.666967
 C         2.479418         1.028842        -0.390678
 C         3.315543        -0.177766        -0.568365
 O         2.119007        -1.013118        -0.819915
 H        -0.360514         0.176535        -0.958247
 H        -0.619699        -0.241272         0.809389
 H        -0.115393         1.395377         0.259487
 H         1.921227        -0.073951         2.402308
 H         1.714684        -1.638019         1.585752
 H         4.261957        -1.015835         1.268852
 H         2.505683         2.661029         1.254556
 H         3.955518         2.519633         0.275469
 H         2.152029         1.561525        -1.443867
 H         4.069582        -0.353992        -1.292349
