19
Iteration:   261charge 0 multiplicity 1
 C        -0.030739         0.306612         0.096462
 C         1.477337        -0.006447         0.099285
 C         2.118994        -0.587333         1.433473
 C         3.512613        -0.325902         1.050396
 O         3.949519         0.985383         1.430049
 C         3.104162         1.958916         0.733739
 C         2.487097         1.054560        -0.383666
 C         3.299574        -0.191199        -0.441219
 O         2.070202        -0.917671        -0.817726
 H        -0.585172        -0.574912        -0.377441
 H        -0.430672         0.555061         1.102549
 H        -0.043319         1.169963        -0.559194
 H         1.904189         0.037631         2.412945
 H         1.827667        -1.656710         1.511024
 H         4.263146        -1.094856         1.357995
 H         2.440822         2.438920         1.472518
 H         3.916631         2.589375         0.452973
 H         2.400499         1.389100        -1.434244
 H         4.066413        -0.379681        -1.203171
