19
Iteration:  2358
 C        -0.136369         0.127406        -0.070730
 C         1.362969         0.042128         0.161120
 C         1.902746         0.079194         1.556601
 C         3.518864        -0.080661         1.258911
 O         4.203875         1.120904         1.094656
 C         3.379195         1.940916         0.243968
 C         2.635746         0.819132        -0.588455
 C         3.246756        -0.481984        -0.226278
 O         1.926885        -1.258029        -0.234868
 H        -0.670482         1.027177         0.249235
 H        -0.413365        -0.116958        -1.189506
 H        -0.612657        -0.763264         0.421665
 H         1.730409         1.073261         2.068817
 H         1.574337        -0.814416         2.076204
 H         4.057848        -0.768947         1.903234
 H         2.617065         2.505555         0.835598
 H         3.939718         2.773832        -0.246478
 H         2.392873         0.921629        -1.600876
 H         4.086501        -0.935737        -0.691276
