19
Iteration:  4731
 C        -0.122441         0.204485         0.034149
 C         1.451173         0.019400         0.171781
 C         1.988734         0.187611         1.667186
 C         3.446526        -0.029415         1.308916
 O         4.086316         1.246584         1.061758
 C         3.396720         1.858590        -0.031776
 C         2.587251         0.681524        -0.717403
 C         3.249994        -0.589772        -0.101708
 O         1.955260        -1.318947        -0.167719
 H        -0.558446        -0.773385        -0.367742
 H        -0.624113         0.395998         1.006536
 H        -0.484979         1.050339        -0.685040
 H         1.826191         1.211696         2.113500
 H         1.460005        -0.595120         2.175379
 H         3.989256        -0.488169         2.117405
 H         2.835655         2.784808         0.055999
 H         4.259433         2.195634        -0.674079
 H         2.330407         0.614496        -1.799479
 H         4.035278        -1.167194        -0.611995
