19
Iteration:  2410charge 0 multiplicity 1
 C         0.046567         0.407373        -0.025035
 C         1.443614        -0.042107         0.199183
 C         2.006621        -0.119001         1.708217
 C         3.486116        -0.082087         1.233915
 O         3.903519         1.281170         1.210653
 C         3.298953         1.889218         0.084788
 C         2.532762         0.770647        -0.568770
 C         3.268725        -0.608167        -0.314428
 O         2.030439        -1.299309        -0.303774
 H         0.173553         1.425164        -0.245435
 H        -0.396878         0.027460        -0.998869
 H        -0.805040         0.323885         0.729260
 H         1.766955         0.794141         2.447302
 H         1.697987        -1.023498         2.145445
 H         4.189265        -0.691515         1.812963
 H         2.603548         2.777251         0.477199
 H         3.999253         2.294224        -0.635024
 H         2.401396         0.927625        -1.578669
 H         4.129273        -1.097566        -0.869316
