19
Iteration:  2212
 C        -0.087718         0.212351        -0.176174
 C         1.371279         0.033116         0.198631
 C         1.976495         0.001225         1.672103
 C         3.489203        -0.121963         1.323526
 O         4.087852         1.137138         1.071548
 C         3.290185         1.942017         0.225426
 C         2.565007         0.833986        -0.590141
 C         3.288541        -0.545442        -0.223960
 O         2.016228        -1.220646        -0.293481
 H        -0.457308         1.311869        -0.361436
 H        -0.443639        -0.484715        -0.914353
 H        -0.606703         0.036774         0.843813
 H         1.928119         0.950565         2.286504
 H         1.567876        -0.927937         2.178187
 H         4.188016        -0.671261         1.979742
 H         2.591736         2.605247         0.804198
 H         4.081809         2.429077        -0.310859
 H         2.438373         0.994101        -1.681549
 H         4.039021        -1.110182        -0.823844
