19
Iteration:   203
 C        -0.112733         0.024757        -0.105919
 C         1.393915         0.005335         0.181632
 C         2.025499        -0.428585         1.515979
 C         3.490921        -0.387869         1.037542
 O         4.154708         0.884016         1.419623
 C         3.277294         1.921711         0.818512
 C         2.496298         1.181276        -0.238483
 C         3.240227        -0.085721        -0.571937
 O         2.082314        -0.831268        -0.812399
 H        -0.743695        -0.165870         0.840079
 H        -0.524422         0.898614        -0.616976
 H        -0.441911        -0.783188        -0.717099
 H         1.749660         0.283190         2.355509
 H         1.583559        -1.373405         1.792530
 H         4.268454        -1.093083         1.197256
 H         2.537582         2.499926         1.472879
 H         3.889719         2.636053         0.393744
 H         1.937304         1.805316        -1.106289
 H         3.932856        -0.254671        -1.376886
