19
Iteration:   714
 C        -0.139285         0.018874        -0.045648
 C         1.389208         0.056505         0.135475
 C         1.961906        -0.171152         1.579047
 C         3.474386        -0.233539         1.174145
 O         4.106189         1.099669         1.357388
 C         3.404983         1.947832         0.375118
 C         2.587237         0.953051        -0.438455
 C         3.251834        -0.350298        -0.352528
 O         2.008491        -1.020893        -0.538117
 H        -0.447674        -0.663095        -0.935208
 H        -0.765976        -0.171620         0.928047
 H        -0.638045         0.897825        -0.434980
 H         1.768418         0.620000         2.245801
 H         1.512809        -1.146290         1.990463
 H         4.042196        -0.961143         1.739827
 H         2.671635         2.747154         0.771148
 H         4.082341         2.312014        -0.417294
 H         2.509979         1.337736        -1.510996
 H         3.979169        -0.818093        -1.003563
