19
Iteration:  3993charge 0 multiplicity 1
 C        -0.069686         0.251686         0.017962
 C         1.420047         0.071885         0.126995
 C         2.020415        -0.028834         1.547800
 C         3.478656        -0.091230         1.274171
 O         4.076846         1.149218         1.144839
 C         3.233265         1.920269         0.246896
 C         2.623007         0.804391        -0.641941
 C         3.267966        -0.577459        -0.218400
 O         1.979901        -1.206909        -0.323098
 H        -0.247593         1.214370         0.476139
 H        -0.264948         0.096140        -0.997101
 H        -0.574117        -0.551453         0.627225
 H         1.633255         0.844401         2.247934
 H         1.713231        -1.048462         1.891744
 H         4.141545        -0.694227         1.837408
 H         2.406195         2.463995         0.754259
 H         3.841367         2.690835        -0.220752
 H         2.423700         0.820466        -1.690403
 H         4.044634        -1.057729        -0.714526
