19
Iteration:  2256charge 0 multiplicity 1
 C        -0.013896         0.421561        -0.027755
 C         1.481969        -0.011788         0.114796
 C         2.005770        -0.047803         1.761806
 C         3.546543        -0.115742         1.241002
 O         3.909859         1.209132         1.198799
 C         3.214715         1.940247         0.065403
 C         2.562923         0.740446        -0.596151
 C         3.322487        -0.647885        -0.210877
 O         2.035750        -1.285748        -0.345307
 H        -0.092504         1.452793         0.510919
 H        -0.184949         0.599497        -1.096231
 H        -0.865162        -0.148972         0.530832
 H         1.710394         1.001401         2.147088
 H         1.539478        -0.921508         2.255263
 H         4.187960        -0.732496         1.939129
 H         2.417477         2.559553         0.596643
 H         3.909061         2.379894        -0.628209
 H         2.327080         0.795895        -1.645025
 H         4.182810        -1.053292        -0.839834
