19
Iteration:  2783
 C         0.032551         0.311185        -0.034433
 C         1.433281        -0.041942         0.167012
 C         1.928246         0.065880         1.720878
 C         3.506633        -0.113159         1.176074
 O         4.034613         1.262881         1.212584
 C         3.207766         1.910700         0.190752
 C         2.598482         0.720743        -0.646824
 C         3.292129        -0.596736        -0.246466
 O         1.979236        -1.317965        -0.335592
 H        -0.082767         1.458008        -0.170942
 H        -0.467272        -0.102783        -0.983965
 H        -0.521026        -0.026100         0.829370
 H         1.933726         1.054618         2.192758
 H         1.576611        -0.801109         2.248620
 H         4.195978        -0.742190         1.780298
 H         2.492423         2.512464         0.663875
 H         3.926019         2.453412        -0.369331
 H         2.263420         0.986006        -1.752066
 H         4.178209        -0.934828        -0.788054
