19
Iteration:    42
 C        -0.113009        -0.065726        -0.117889
 C         1.403644         0.086923         0.134718
 C         2.027395        -0.485032         1.356739
 C         3.558561        -0.434364         0.958482
 O         4.115962         0.791517         1.486475
 C         3.299164         1.862844         0.965593
 C         2.381517         1.242665        -0.117113
 C         3.290719         0.002614        -0.521067
 O         2.015163        -0.688453        -0.909426
 H        -0.332443        -1.009734         0.604039
 H        -0.635402         0.779246         0.305385
 H        -0.207814        -0.317595        -1.143908
 H         1.616303         0.130349         2.252775
 H         1.742620        -1.475392         1.484996
 H         4.290240        -1.200986         1.145600
 H         2.801377         2.518331         1.712729
 H         3.973182         2.695276         0.332076
 H         2.111451         1.911245        -1.006704
 H         4.074753        -0.126550        -1.237074
