19
Iteration:  3096charge 0 multiplicity 1
 C        -0.053732         0.310015        -0.020308
 C         1.467744        -0.037699         0.181228
 C         1.978640        -0.013492         1.607633
 C         3.506515        -0.128597         1.268072
 O         4.013137         1.165696         1.234539
 C         3.216707         1.902210         0.149561
 C         2.554752         0.752924        -0.688189
 C         3.369154        -0.488871        -0.245259
 O         1.990631        -1.250200        -0.282755
 H        -0.292572         1.356686        -0.051825
 H        -0.329600        -0.047063        -1.112025
 H        -0.773316        -0.135537         0.735827
 H         1.958678         1.014621         2.083924
 H         1.503380        -0.773365         2.134867
 H         4.081026        -0.659137         1.983543
 H         2.700671         2.764173         0.554100
 H         3.987594         2.419202        -0.483818
 H         2.259226         0.995620        -1.693559
 H         4.075389        -1.085183        -0.802849
