19
Iteration:   418
 C        -0.041136         0.306686         0.051506
 C         1.424996         0.089441         0.229259
 C         2.000777        -0.508679         1.479554
 C         3.550769        -0.262252         1.073441
 O         3.946465         1.084911         1.454205
 C         3.242325         1.973863         0.540924
 C         2.546772         0.981106        -0.453869
 C         3.337994        -0.314551        -0.468625
 O         2.040882        -1.051368        -0.725364
 H        -0.536059         0.037750         1.005115
 H        -0.339777         1.275757        -0.371650
 H        -0.477885        -0.514377        -0.667331
 H         1.895321         0.045595         2.434709
 H         1.486164        -1.609349         1.636977
 H         4.181309        -0.987114         1.557467
 H         2.589254         2.531591         1.228217
 H         4.001912         2.712886         0.056310
 H         2.141535         1.372000        -1.300655
 H         4.218657        -0.520631        -1.068806
