19
Iteration:  4055
 C        -0.021553         0.284614        -0.059795
 C         1.442410         0.018838         0.158707
 C         2.016349        -0.214456         1.736987
 C         3.517798        -0.157334         1.207674
 O         3.976602         1.248676         1.222242
 C         3.325294         1.960730         0.153922
 C         2.573152         0.788610        -0.609857
 C         3.246224        -0.503260        -0.320254
 O         1.962251        -1.201215        -0.296067
 H        -0.306438         1.343585        -0.379535
 H        -0.486487        -0.118014        -0.963487
 H        -0.632406         0.018936         0.840674
 H         1.809501         0.674069         2.417376
 H         1.604965        -1.094164         2.188761
 H         4.350945        -0.765592         1.701746
 H         2.584967         2.640259         0.577404
 H         4.186989         2.420466        -0.383890
 H         2.277395         1.040997        -1.602954
 H         4.097756        -0.990262        -0.815935
