19
Iteration:  3740charge 0 multiplicity 1
 C        -0.044729         0.254790        -0.103177
 C         1.433198         0.080289         0.162364
 C         2.026767        -0.057471         1.660039
 C         3.522710        -0.141713         1.234783
 O         4.057060         1.163307         1.229981
 C         3.208498         1.895305         0.269552
 C         2.585778         0.810128        -0.607161
 C         3.260346        -0.516057        -0.333152
 O         1.990011        -1.215052        -0.338764
 H        -0.330060        -0.017136        -1.187292
 H        -0.521153        -0.367419         0.671843
 H        -0.307431         1.345952         0.087127
 H         1.828304         0.752300         2.390424
 H         1.616836        -0.843533         2.251382
 H         4.157309        -0.968803         1.645797
 H         2.389492         2.464158         0.802741
 H         3.889002         2.602147        -0.222277
 H         2.249755         1.060583        -1.622881
 H         4.073625        -1.041211        -0.870854
