19
Iteration:   534charge 0 multiplicity 1
 C        -0.103118         0.059997        -0.162210
 C         1.403026        -0.019265         0.167215
 C         2.028719        -0.132319         1.549081
 C         3.494147        -0.298741         1.119585
 O         4.191379         0.985745         1.282392
 C         3.271510         1.945442         0.622690
 C         2.461954         1.060996        -0.390424
 C         3.235344        -0.272942        -0.358318
 O         1.989918        -1.057387        -0.587348
 H        -0.158316         0.592989        -1.084853
 H        -0.556879        -0.927589        -0.275407
 H        -0.582917         0.649085         0.713009
 H         1.905646         0.685321         2.259705
 H         1.687434        -0.990283         1.928935
 H         4.152653        -1.097738         1.422043
 H         2.669298         2.512127         1.357004
 H         3.802731         2.622030        -0.027875
 H         2.315842         1.614790        -1.340659
 H         4.074531        -0.571105        -1.042232
