19
Iteration:   282
 C        -0.065727         0.408382         0.102332
 C         1.467195         0.064716         0.207819
 C         2.052142        -0.632179         1.454360
 C         3.568508        -0.311711         1.005146
 O         3.899354         1.043876         1.542951
 C         3.159038         1.913587         0.623977
 C         2.457252         1.051924        -0.323651
 C         3.366048        -0.251810        -0.561288
 O         2.134373        -1.031391        -0.872059
 H        -0.465314        -0.217543        -0.799031
 H        -0.521531         0.003067         1.034950
 H        -0.220387         1.470740         0.067579
 H         1.818942        -0.030549         2.468096
 H         1.796517        -1.694154         1.515318
 H         4.393332        -0.899762         1.480172
 H         2.372520         2.359797         1.352527
 H         3.830045         2.591553         0.169835
 H         1.988073         1.763482        -1.187823
 H         4.123640        -0.397695        -1.344752
