19
Iteration:  1908
 C         0.034082         0.440472        -0.007591
 C         1.465155        -0.033702         0.166525
 C         1.944689        -0.126437         1.701705
 C         3.490874        -0.130066         1.242829
 O         3.969790         1.245138         1.198955
 C         3.205336         1.917237         0.123465
 C         2.589748         0.766546        -0.665754
 C         3.293681        -0.531581        -0.239276
 O         2.027829        -1.306488        -0.328561
 H        -0.072625         1.511138         0.185750
 H        -0.284322         0.197713        -0.991107
 H        -0.553824        -0.280043         0.732875
 H         1.639047         0.664203         2.398956
 H         1.652451        -1.057443         2.026250
 H         4.260363        -0.770984         1.717717
 H         2.512268         2.632336         0.670255
 H         3.939232         2.627977        -0.381327
 H         2.310065         0.933648        -1.794531
 H         4.058623        -1.047317        -0.748906
