19
Iteration:  4660
 C         0.015292         0.353399        -0.047338
 C         1.438713         0.027384         0.185916
 C         1.978924         0.141195         1.640325
 C         3.463536        -0.029470         1.353852
 O         4.036660         1.302233         1.064751
 C         3.306331         1.830591         0.025909
 C         2.516995         0.651340        -0.697402
 C         3.298738        -0.684752        -0.223031
 O         1.971940        -1.380707        -0.115843
 H        -0.552868        -0.511001         0.114464
 H        -0.306251         1.189639         0.638612
 H        -0.117306         0.675656        -1.025883
 H         1.859511         1.085700         2.103634
 H         1.507494        -0.680413         2.236401
 H         4.137753        -0.541592         2.078335
 H         2.592793         2.583306         0.441119
 H         3.913640         2.500919        -0.642718
 H         2.193933         0.727715        -1.713880
 H         4.118276        -1.194584        -0.663402
