19
Iteration:  3519
 C        -0.044960         0.277378        -0.048874
 C         1.381645         0.066962         0.242913
 C         1.964311        -0.096935         1.687211
 C         3.466204        -0.088428         1.268612
 O         4.034343         1.279888         1.200921
 C         3.349921         1.887554         0.135516
 C         2.618952         0.756682        -0.632255
 C         3.282879        -0.536626        -0.228969
 O         1.957151        -1.267622        -0.400195
 H        -0.146010         1.318730        -0.383339
 H        -0.445465        -0.356204        -0.978037
 H        -0.607686        -0.149986         0.829306
 H         1.607746         0.675094         2.458185
 H         1.767487        -1.082530         2.057844
 H         4.239010        -0.659194         1.869029
 H         2.747194         2.715116         0.589040
 H         4.159982         2.421723        -0.398119
 H         2.285622         1.072309        -1.687470
 H         4.005592        -1.284790        -0.653054
