19
Iteration:   252charge 0 multiplicity 1
 C         0.020078         0.234525         0.035983
 C         1.451116         0.010977         0.114970
 C         2.012633        -0.579950         1.484835
 C         3.512303        -0.311165         1.022244
 O         4.010909         0.968310         1.432975
 C         3.150614         1.895831         0.741346
 C         2.502831         1.145733        -0.384914
 C         3.350533        -0.194122        -0.475287
 O         2.021489        -0.910495        -0.803303
 H        -0.548017        -0.694510        -0.051849
 H        -0.225312         0.705442         1.011132
 H        -0.431445         0.966456        -0.727678
 H         1.762599         0.026018         2.403827
 H         1.784934        -1.670684         1.710813
 H         4.341577        -0.955211         1.412885
 H         2.379308         2.192983         1.402549
 H         3.654628         2.861390         0.340234
 H         2.266758         1.625084        -1.248063
 H         4.203707        -0.338079        -1.205903
