19
Iteration:  4668charge 0 multiplicity 1
 C         0.044500         0.415165        -0.092730
 C         1.423283        -0.004521         0.236372
 C         2.024893         0.120562         1.659414
 C         3.487909        -0.064121         1.261997
 O         4.021620         1.315722         1.117357
 C         3.216701         1.825337        -0.032556
 C         2.499721         0.589718        -0.627416
 C         3.289318        -0.680149        -0.236767
 O         2.007650        -1.332955        -0.070027
 H        -0.629830        -0.404095        -0.064380
 H        -0.319073         1.129819         0.666748
 H         0.073762         0.858796        -1.101783
 H         1.815172         1.126780         2.107554
 H         1.437751        -0.662289         2.205207
 H         4.079484        -0.603277         1.885272
 H         2.419232         2.590092         0.171413
 H         4.062920         2.322987        -0.484435
 H         2.377552         0.649171        -1.717636
 H         4.085673        -1.099739        -0.830412
