19
Iteration:  4064
 C        -0.050500         0.252211        -0.024639
 C         1.480658         0.094412         0.220509
 C         1.986155        -0.141472         1.647227
 C         3.521764        -0.130968         1.273656
 O         3.997492         1.207425         1.220366
 C         3.331330         1.949707         0.131778
 C         2.606341         0.836291        -0.616579
 C         3.203742        -0.566406        -0.255711
 O         1.965477        -1.198761        -0.372453
 H        -0.478719         1.303516        -0.010236
 H        -0.306851        -0.496314        -0.877436
 H        -0.552190        -0.289317         0.803502
 H         1.741596         0.603217         2.371036
 H         1.713601        -1.163349         1.865440
 H         4.243633        -0.760281         1.932089
 H         2.641367         2.736076         0.519101
 H         4.050395         2.598760        -0.418713
 H         2.370569         1.012118        -1.718410
 H         3.921485        -1.140973        -0.941077
