19
Iteration:   471
 C        -0.042044         0.311157         0.116881
 C         1.415197        -0.010266         0.154473
 C         2.059562        -0.425597         1.531111
 C         3.522911        -0.280191         1.148765
 O         3.934994         1.115780         1.480623
 C         3.191458         1.967590         0.449306
 C         2.598715         0.981768        -0.470813
 C         3.256461        -0.360018        -0.505581
 O         2.098140        -1.062797        -0.725913
 H        -0.640256        -0.487087        -0.144173
 H        -0.407027         0.748869         1.016188
 H        -0.198680         1.131025        -0.658504
 H         1.739890         0.145874         2.400007
 H         1.724173        -1.484608         1.672429
 H         4.119718        -1.059840         1.588202
 H         2.409604         2.531270         1.026770
 H         3.887520         2.599109        -0.024065
 H         2.371081         1.451168        -1.336367
 H         4.145387        -0.572987        -1.106546
