19
Iteration:  2092
 C         0.017671         0.499957        -0.090839
 C         1.446513        -0.005183         0.204270
 C         2.000823        -0.077881         1.663218
 C         3.528989        -0.159733         1.200290
 O         3.941303         1.232860         1.168523
 C         3.149588         1.811320         0.155048
 C         2.541448         0.729677        -0.614950
 C         3.315215        -0.510094        -0.287610
 O         2.090084        -1.327401        -0.234181
 H        -0.368169         1.322988         0.722049
 H        -0.062158         0.909038        -1.070441
 H        -0.793173        -0.306214         0.045744
 H         2.012477         0.821773         2.385436
 H         1.539600        -1.052253         2.182379
 H         3.986675        -0.603129         2.054214
 H         2.345335         2.516809         0.479843
 H         3.913209         2.455721        -0.419902
 H         2.516825         1.074376        -1.697066
 H         4.112508        -1.029362        -0.779436
