19
Iteration:  3634
 C        -0.081562         0.093177        -0.087411
 C         1.351868         0.023161         0.149619
 C         1.875601         0.037295         1.610491
 C         3.510965        -0.097548         1.227043
 O         4.149567         1.107151         1.233642
 C         3.415446         1.907182         0.179992
 C         2.506167         0.888852        -0.475614
 C         3.272899        -0.477779        -0.218296
 O         1.987464        -1.182899        -0.397056
 H        -0.392539         0.091321        -1.137718
 H        -0.507160        -0.767685         0.330900
 H        -0.589135         0.875513         0.488059
 H         1.824439         1.050550         2.001666
 H         1.595210        -0.769776         2.425698
 H         3.921109        -0.982625         1.825105
 H         2.829207         2.667197         0.704962
 H         4.029347         2.397395        -0.596270
 H         2.445259         1.057495        -1.551363
 H         4.144319        -0.836022        -0.900129
