19
Iteration:  2211
 C        -0.096954         0.201326        -0.176934
 C         1.370203         0.034258         0.201587
 C         1.988793         0.008193         1.671665
 C         3.485189        -0.124075         1.330018
 O         4.087080         1.137621         1.064287
 C         3.299828         1.940354         0.226588
 C         2.569918         0.832790        -0.578262
 C         3.283720        -0.538992        -0.221870
 O         2.014918        -1.219676        -0.298883
 H        -0.461481         1.308093        -0.368648
 H        -0.421107        -0.485726        -0.902512
 H        -0.607914         0.049279         0.808423
 H         1.944555         0.920795         2.254877
 H         1.547095        -0.928064         2.172933
 H         4.156416        -0.688897         1.962062
 H         2.565890         2.618656         0.794858
 H         4.087263         2.412886        -0.303087
 H         2.421139         1.013868        -1.704875
 H         4.036698        -1.093310        -0.791218
