19
Iteration:  2322charge 0 multiplicity 1
 C        -0.153011         0.086504        -0.065143
 C         1.412037         0.062400         0.256632
 C         1.990398         0.120627         1.661674
 C         3.426026        -0.094662         1.308577
 O         4.054108         1.112930         1.171745
 C         3.453026         1.864252         0.075986
 C         2.555002         0.805828        -0.550152
 C         3.293254        -0.491014        -0.247585
 O         1.967497        -1.190055        -0.367378
 H        -0.810665         0.612341         0.635882
 H        -0.259218         0.507191        -1.075943
 H        -0.426345        -1.040747        -0.023580
 H         1.780385         1.197834         2.089057
 H         1.540346        -0.492162         2.420489
 H         4.196363        -0.753822         1.769628
 H         2.772437         2.648091         0.627095
 H         4.275316         2.267006        -0.505514
 H         2.391739         0.925131        -1.591730
 H         4.178250        -0.822515        -0.888487
