19
Iteration:  4908charge 0 multiplicity 1
 C        -0.113961         0.101838        -0.102934
 C         1.368601         0.078897         0.274464
 C         1.978098         0.302245         1.667849
 C         3.468867         0.020960         1.258883
 O         4.130535         1.168808         1.052920
 C         3.436945         1.807384        -0.104864
 C         2.514341         0.708643        -0.657440
 C         3.191901        -0.605729        -0.110878
 O         1.975165        -1.282304        -0.037141
 H        -0.012156        -0.204334        -1.155559
 H        -0.555111        -0.827413         0.481024
 H        -0.709434         1.034907        -0.056691
 H         2.086174         1.281909         2.095810
 H         1.679746        -0.349566         2.530217
 H         4.025150        -0.541389         1.925835
 H         2.948343         2.709108         0.345631
 H         4.161012         2.048021        -0.913479
 H         2.365095         0.819789        -1.754115
 H         3.887137        -1.063933        -0.836716
