19
Iteration:   680charge 0 multiplicity 1
 C        -0.103064         0.122707        -0.094022
 C         1.444296         0.053132         0.138850
 C         1.958698        -0.100149         1.583411
 C         3.427325        -0.228045         1.102134
 O         4.142106         1.055538         1.236968
 C         3.265429         1.924177         0.520271
 C         2.541936         0.973609        -0.374142
 C         3.228709        -0.383277        -0.388048
 O         2.076245        -1.127663        -0.521440
 H        -0.340533        -1.005120         0.054454
 H        -0.676027         0.764817         0.660658
 H        -0.145804         0.535776        -1.115199
 H         1.882337         0.742416         2.188185
 H         1.552344        -0.970923         2.162430
 H         3.896037        -1.099622         1.642015
 H         2.716196         2.621109         1.277015
 H         3.765841         2.661855        -0.114034
 H         2.335415         1.266556        -1.447388
 H         4.072736        -0.645817        -1.018586
