19
Iteration:  3260
 C        -0.106398         0.283362        -0.114583
 C         1.413999         0.098768         0.199920
 C         1.990338        -0.001575         1.681287
 C         3.448782        -0.082212         1.219533
 O         4.004111         1.306608         1.184759
 C         3.370981         1.823651         0.033851
 C         2.595559         0.721496        -0.549957
 C         3.264667        -0.603490        -0.204716
 O         2.021359        -1.314199        -0.226206
 H        -0.486391        -0.762627        -0.144149
 H        -0.625506         0.778734         0.829800
 H        -0.199035         0.885327        -1.008965
 H         1.932006         1.112670         1.996646
 H         1.477220        -0.600111         2.390850
 H         4.016535        -0.739306         1.899743
 H         2.869307         2.799267         0.300784
 H         4.085657         2.117103        -0.815961
 H         2.339957         0.701919        -1.674933
 H         4.153271        -0.990708        -0.683181
