19
Iteration:  2680
 C        -0.018172         0.013466        -0.011070
 C         1.437594         0.098349         0.173450
 C         1.890614         0.168909         1.566126
 C         3.448653        -0.047493         1.276926
 O         4.165024         1.138416         1.112755
 C         3.397090         1.922621         0.199881
 C         2.566203         0.822283        -0.606626
 C         3.238169        -0.568438        -0.251488
 O         1.914419        -1.209918        -0.272147
 H        -0.629122         0.642115         0.630739
 H        -0.348163         0.176294        -1.036092
 H        -0.568625        -1.005979         0.108852
 H         1.509631         0.995976         2.172377
 H         1.421649        -0.692535         2.071908
 H         3.930504        -0.747159         1.956354
 H         2.976168         2.626109         0.832359
 H         4.065198         2.519194        -0.415709
 H         2.471044         0.895821        -1.614622
 H         4.089826        -1.115213        -0.718845
