19
Iteration:  2635
 C        -0.008468         0.232515        -0.130224
 C         1.412377        -0.008166         0.229724
 C         1.983244         0.045618         1.643686
 C         3.464198        -0.092538         1.161236
 O         4.070124         1.199599         1.180015
 C         3.310539         1.914014         0.145475
 C         2.522104         0.787796        -0.563910
 C         3.263419        -0.506220        -0.226519
 O         1.983845        -1.295625        -0.220892
 H        -0.366454         1.273164         0.155171
 H        -0.146371        -0.064313        -1.137661
 H        -0.680292        -0.502808         0.404495
 H         1.849426         0.965009         2.184922
 H         1.717516        -0.834132         2.297232
 H         4.124831        -0.742096         1.708777
 H         2.705330         2.695623         0.419765
 H         4.099091         2.355501        -0.508285
 H         2.171062         1.034432        -1.557173
 H         4.000108        -1.059390        -0.815762
