19
Iteration:   178charge 0 multiplicity 1
 C        -0.039105         0.044266        -0.051588
 C         1.406839         0.057534         0.164962
 C         2.067562        -0.495880         1.434522
 C         3.523539        -0.358736         1.000726
 O         4.075585         0.910796         1.440776
 C         3.283845         1.929595         0.797850
 C         2.438373         1.188674        -0.218924
 C         3.256336        -0.100166        -0.425626
 O         1.992039        -0.854947        -0.870663
 H        -0.542979         0.682321         0.582094
 H        -0.317122         0.317213        -1.066967
 H        -0.538621        -0.956155         0.120445
 H         1.822129        -0.123032         2.335025
 H         1.713616        -1.552115         1.368275
 H         4.369429        -1.069785         1.139508
 H         2.646819         2.559109         1.490896
 H         3.984479         2.653750         0.276716
 H         2.101192         1.735080        -1.079944
 H         4.138025        -0.252452        -1.111975
