19
Iteration:  3178charge 0 multiplicity 1
 C         0.016601         0.184513        -0.177135
 C         1.458897        -0.026777         0.241805
 C         1.956383         0.146977         1.684232
 C         3.468630        -0.159545         1.179343
 O         4.050401         1.189343         1.153902
 C         3.367265         1.952437         0.099266
 C         2.517257         0.806371        -0.514081
 C         3.241488        -0.559796        -0.214540
 O         1.968734        -1.261414        -0.215392
 H        -0.671799         0.253537         0.747157
 H        -0.145514         1.084179        -0.714509
 H        -0.395978        -0.640597        -0.816433
 H         1.645816         1.066049         2.207736
 H         1.524850        -0.784230         2.310238
 H         4.060716        -0.815354         1.902445
 H         2.779389         2.710830         0.625259
 H         4.002380         2.316625        -0.708008
 H         2.295099         0.938412        -1.647340
 H         3.989571        -1.045072        -0.897591
