19
Iteration:  3899charge 0 multiplicity 1
 C        -0.037495         0.254513        -0.033392
 C         1.471246         0.066991         0.155041
 C         2.051845        -0.010159         1.679276
 C         3.481783        -0.185261         1.285213
 O         4.004845         1.231798         1.150871
 C         3.252568         1.924574         0.135446
 C         2.622055         0.813413        -0.579210
 C         3.274919        -0.572990        -0.236224
 O         1.956668        -1.272150        -0.332584
 H        -0.522886         0.822656         0.767746
 H        -0.310818         0.720356        -1.066857
 H        -0.625229        -0.662054        -0.118586
 H         1.863633         0.899169         2.343314
 H         1.411359        -0.798594         2.131256
 H         4.120819        -0.809447         1.830018
 H         2.567472         2.648210         0.615860
 H         4.005844         2.479315        -0.464806
 H         2.334276         0.987317        -1.648035
 H         4.077491        -1.073337        -0.750747
