19
Iteration:  1923
 C         0.045523         0.446321        -0.025312
 C         1.438874         0.012239         0.217591
 C         2.101958        -0.105860         1.555036
 C         3.512117        -0.120485         1.247003
 O         3.941511         1.260610         1.220067
 C         3.135372         1.894546         0.192621
 C         2.520486         0.733476        -0.539716
 C         3.301007        -0.621224        -0.291626
 O         2.039872        -1.334269        -0.346539
 H         0.195347         1.537183        -0.045612
 H        -0.252982         0.281447        -1.141633
 H        -0.827348         0.332870         0.658127
 H         1.893153         0.858085         2.111874
 H         1.634617        -0.998666         2.080797
 H         4.135275        -0.583991         2.076742
 H         2.396279         2.620280         0.506275
 H         3.733580         2.491539        -0.419529
 H         2.259966         0.861733        -1.525750
 H         4.172553        -1.037739        -0.936585
