19
Iteration:  2477
 C        -0.106928         0.152910        -0.043775
 C         1.378117         0.028945         0.197165
 C         1.975189         0.151907         1.623725
 C         3.460681        -0.108606         1.249049
 O         4.117157         1.167317         1.200922
 C         3.357729         1.856111         0.134809
 C         2.554800         0.753680        -0.563791
 C         3.255148        -0.487655        -0.254298
 O         1.996249        -1.253363        -0.306411
 H        -0.526696         0.938853         0.552954
 H        -0.252105         0.338960        -1.173182
 H        -0.598011        -0.825595         0.090202
 H         1.997171         1.205277         2.139965
 H         1.471234        -0.690429         2.076134
 H         4.134532        -0.658202         1.887749
 H         2.734876         2.629844         0.616521
 H         3.956332         2.378834        -0.599575
 H         2.443227         0.895346        -1.594194
 H         4.036260        -0.943750        -0.813458
