19
Iteration:  2835
 C        -0.126964         0.022039        -0.105396
 C         1.339533         0.062850         0.233057
 C         1.970593         0.058340         1.695486
 C         3.467440        -0.068937         1.278574
 O         4.186268         1.145349         1.179918
 C         3.445560         1.930649         0.068642
 C         2.569626         0.828424        -0.573077
 C         3.155917        -0.505567        -0.240247
 O         1.952602        -1.189981        -0.285060
 H        -0.728927         0.860261         0.121510
 H        -0.026588         0.100904        -1.255590
 H        -0.567986        -0.949036         0.188106
 H         1.843765         1.048476         2.267614
 H         1.540918        -0.804674         2.160473
 H         4.154327        -0.715379         1.903516
 H         2.772106         2.728740         0.610799
 H         4.241684         2.422459        -0.533683
 H         2.339891         1.013839        -1.646960
 H         4.055347        -0.861550        -0.806848
