19
Iteration:  2603charge 0 multiplicity 1
 C        -0.004685         0.425558         0.011738
 C         1.435460        -0.011644         0.237459
 C         1.987096        -0.114074         1.677658
 C         3.514314        -0.058297         1.253421
 O         3.904867         1.278174         1.172113
 C         3.243511         1.898901         0.052834
 C         2.624392         0.693800        -0.618279
 C         3.354220        -0.608145        -0.223567
 O         2.003888        -1.253107        -0.342806
 H        -0.318016         1.475780        -0.175329
 H        -0.302815         0.053363        -0.932342
 H        -0.685852        -0.017412         0.813616
 H         1.737808         0.626240         2.408338
 H         1.727495        -1.081851         2.140236
 H         4.230478        -0.612798         1.842001
 H         2.506954         2.630043         0.290135
 H         4.126562         2.328074        -0.416665
 H         2.214594         0.830303        -1.594245
 H         4.076717        -1.282218        -0.734122
