19
Iteration:  3021charge 0 multiplicity 1
 C        -0.077329         0.164383        -0.017615
 C         1.458252         0.058595         0.178078
 C         1.965946         0.046350         1.566496
 C         3.445661        -0.084366         1.328159
 O         4.076631         1.177402         1.279659
 C         3.360884         1.894673         0.154267
 C         2.532579         0.835259        -0.674811
 C         3.243203        -0.506405        -0.304599
 O         2.013170        -1.326437        -0.322003
 H        -0.393403         0.996360        -0.601955
 H        -0.463150        -0.708334        -0.661426
 H        -0.571151         0.323583         0.932887
 H         1.835856         1.124675         1.999286
 H         1.640419        -0.795350         2.147831
 H         4.030444        -0.725700         1.918061
 H         2.565180         2.494322         0.620604
 H         4.128790         2.573469        -0.331512
 H         2.239093         1.207977        -1.689616
 H         4.110480        -0.951281        -0.807942
