19
Iteration:  4003
 C        -0.017537         0.307276        -0.010994
 C         1.410615        -0.052295         0.171361
 C         2.020533        -0.037231         1.610182
 C         3.487710        -0.141607         1.214716
 O         4.062887         1.186092         1.129219
 C         3.196049         1.939560         0.210030
 C         2.628789         0.785026        -0.595814
 C         3.304667        -0.531233        -0.222450
 O         1.965452        -1.222088        -0.338059
 H        -0.125265         1.386444         0.078897
 H        -0.359612         0.218904        -0.984164
 H        -0.803636        -0.173659         0.623477
 H         1.605645         0.669858         2.506815
 H         1.791123        -1.048764         2.033114
 H         4.015898        -0.742799         1.943873
 H         2.371194         2.415398         0.779763
 H         3.860186         2.702270        -0.222117
 H         2.423079         0.959452        -1.620129
 H         4.108529        -0.985435        -0.722776
