19
Iteration:  3402
 C        -0.053722         0.315380        -0.098425
 C         1.482617        -0.018110         0.178183
 C         2.001267         0.000758         1.603243
 C         3.436882        -0.129122         1.238513
 O         3.968744         1.259093         1.212177
 C         3.367146         1.905640         0.080649
 C         2.548262         0.796908        -0.540838
 C         3.214484        -0.578900        -0.236939
 O         2.027642        -1.313082        -0.233579
 H        -0.543722         0.247385         0.869469
 H        -0.184366         1.428394        -0.292379
 H        -0.378004        -0.284715        -0.926394
 H         1.937255         0.922726         2.329329
 H         1.685669        -0.933890         2.109144
 H         4.123832        -0.726091         1.886053
 H         2.887833         2.888008         0.282016
 H         4.089721         2.052568        -0.749810
 H         2.132240         0.982396        -1.615631
 H         4.047733        -1.164269        -0.631391
