19
Iteration:  1396charge 0 multiplicity 1
 C        -0.022964         0.264427        -0.050902
 C         1.411123         0.060565         0.218852
 C         2.000650        -0.016904         1.679679
 C         3.453908        -0.099160         1.257073
 O         4.067173         1.212931         1.162839
 C         3.289359         1.875253         0.106420
 C         2.607055         0.760030        -0.614898
 C         3.221187        -0.526797        -0.246503
 O         1.997150        -1.282743        -0.273619
 H        -0.541335         0.922442         0.706893
 H        -0.026751         0.762500        -1.000508
 H        -0.549056        -0.754628        -0.365554
 H         1.713428         0.831051         2.410098
 H         1.415331        -0.806813         2.168613
 H         4.222452        -0.708380         1.711822
 H         2.460440         2.577863         0.463417
 H         3.982757         2.532349        -0.413390
 H         2.386249         1.004724        -1.709817
 H         4.092617        -0.993632        -0.785952
