19
Iteration:  4965charge 0 multiplicity 1
 C        -0.185442         0.243113        -0.028552
 C         1.440003         0.019576         0.156594
 C         1.950688         0.229217         1.670242
 C         3.458861        -0.051375         1.301366
 O         4.140457         1.294872         1.000632
 C         3.315353         1.794504        -0.048606
 C         2.560705         0.633255        -0.660533
 C         3.347741        -0.627863        -0.056633
 O         1.982924        -1.301379        -0.115028
 H        -0.575813        -0.712009        -0.580951
 H        -0.692470         0.347443         0.989521
 H        -0.370647         1.143534        -0.615539
 H         1.998412         1.208820         2.156614
 H         1.439304        -0.551345         2.326865
 H         4.110876        -0.643000         2.023814
 H         2.741636         2.659218         0.378701
 H         3.861628         2.286635        -0.845211
 H         2.412824         0.713651        -1.734940
 H         4.155760        -1.172955        -0.667040
