19
Iteration:  3631
 C        -0.078287         0.093654        -0.090100
 C         1.364904         0.036145         0.143144
 C         1.861715         0.019645         1.627346
 C         3.494662        -0.131824         1.233110
 O         4.182238         1.136144         1.218502
 C         3.421158         1.908746         0.181629
 C         2.484197         0.876803        -0.466334
 C         3.285478        -0.474290        -0.218787
 O         1.980784        -1.188870        -0.392696
 H        -0.366513         0.174734        -1.197820
 H        -0.474175        -0.890108         0.261904
 H        -0.620615         0.883276         0.475528
 H         1.756671         1.080586         1.993772
 H         1.557064        -0.746603         2.317986
 H         3.954444        -0.881614         1.797820
 H         2.883380         2.708879         0.727197
 H         3.982940         2.388052        -0.586123
 H         2.400966         1.123231        -1.499681
 H         4.022539        -0.880800        -0.816743
