19
Iteration:  2940
 C        -0.038060         0.302028        -0.144405
 C         1.412140         0.055703         0.238112
 C         2.034138        -0.012222         1.649609
 C         3.500177        -0.149981         1.226962
 O         4.008697         1.235273         1.178895
 C         3.247058         1.927566         0.178370
 C         2.523451         0.775672        -0.614348
 C         3.184643        -0.585314        -0.268579
 O         2.066978        -1.321984        -0.241909
 H         0.028333         1.441795        -0.035270
 H        -0.145964        -0.041745        -1.177061
 H        -0.792927        -0.133413         0.574006
 H         1.927494         0.890870         2.225639
 H         1.607096        -0.831389         2.294864
 H         4.221465        -0.604102         1.968952
 H         2.678739         2.777856         0.639843
 H         4.071121         2.344339        -0.456247
 H         2.539677         0.831181        -1.668271
 H         3.994025        -0.992476        -0.938102
