19
Iteration:  3585
 C        -0.036725         0.272120        -0.165314
 C         1.426767         0.079996         0.211756
 C         2.004226        -0.036074         1.634300
 C         3.571990        -0.198066         1.263293
 O         4.066274         1.232290         1.208889
 C         3.243367         1.882490         0.237643
 C         2.538720         0.781836        -0.559714
 C         3.271035        -0.561099        -0.269582
 O         1.966232        -1.200884        -0.300086
 H        -0.213880         0.980222        -0.992449
 H        -0.544537        -0.705182        -0.555396
 H        -0.713819         0.539916         0.671976
 H         1.974070         0.889518         2.264747
 H         1.489842        -0.843042         2.059009
 H         4.177376        -0.947086         1.774783
 H         2.550367         2.677526         0.568251
 H         3.861438         2.366720        -0.520809
 H         2.243142         0.914156        -1.639742
 H         4.133388        -0.965496        -0.787306
