19
Iteration:  1132charge 0 multiplicity 1
 C         0.001493         0.363237        -0.042249
 C         1.459535        -0.053252         0.147582
 C         1.939114        -0.014001         1.597789
 C         3.445329        -0.094881         1.212077
 O         3.997295         1.247114         1.207345
 C         3.280468         1.952222         0.137631
 C         2.619323         0.752639        -0.504532
 C         3.290599        -0.612948        -0.250654
 O         2.018361        -1.324471        -0.325232
 H        -0.318413         1.074751         0.714194
 H        -0.324837         0.833142        -0.916613
 H        -0.772965        -0.460126         0.169950
 H         1.750842         0.990749         2.146095
 H         1.555746        -0.979884         2.215221
 H         4.152324        -0.669477         1.863807
 H         2.581122         2.736107         0.596171
 H         4.014003         2.322783        -0.568292
 H         2.310847         0.998170        -1.514905
 H         4.079795        -1.068264        -0.786632
