19
Iteration:  1902
 C         0.024842         0.334805        -0.016843
 C         1.433325         0.039244         0.158304
 C         1.934861        -0.150085         1.732841
 C         3.456922        -0.095191         1.218036
 O         3.987450         1.219651         1.179157
 C         3.252296         1.883368         0.108064
 C         2.634551         0.769201        -0.660739
 C         3.300645        -0.481402        -0.218993
 O         2.006327        -1.278957        -0.321813
 H        -0.066584         1.370977         0.363001
 H        -0.463872         0.346109        -1.065465
 H        -0.452835        -0.231917         0.735955
 H         1.657277         0.702977         2.406570
 H         1.531078        -1.204696         2.033857
 H         4.222814        -0.675064         1.780355
 H         2.511848         2.576533         0.496286
 H         3.941198         2.602041        -0.313254
 H         2.311577         0.918957        -1.619850
 H         4.164423        -0.997001        -0.779686
