19
Iteration:  3726charge 0 multiplicity 1
 C         0.044338         0.370696        -0.108339
 C         1.454005        -0.045542         0.215186
 C         2.048094        -0.110486         1.623303
 C         3.487057        -0.170609         1.180306
 O         4.011153         1.171858         1.213389
 C         3.208711         1.869891         0.269381
 C         2.455846         0.884094        -0.579576
 C         3.293101        -0.480021        -0.278959
 O         1.999869        -1.287532        -0.310112
 H        -0.201255        -0.165495        -0.995241
 H        -0.789617         0.145366         0.581449
 H        -0.002306         1.400611        -0.315120
 H         1.972268         0.837609         2.203206
 H         1.760955        -1.053576         1.951462
 H         4.159201        -0.604273         1.786145
 H         2.572352         2.578637         0.836748
 H         3.845440         2.543028        -0.340505
 H         2.203153         1.235873        -1.604279
 H         4.114567        -0.829595        -0.802716
