19
Iteration:   992
 C        -0.099615         0.191790        -0.047917
 C         1.419548         0.025525         0.120278
 C         1.965197        -0.010933         1.657732
 C         3.468191        -0.191736         1.209219
 O         4.042650         1.127867         1.244837
 C         3.319687         1.929707         0.208108
 C         2.555580         0.891200        -0.556361
 C         3.276421        -0.466517        -0.222010
 O         2.043211        -1.224804        -0.393703
 H        -0.447635         0.454012        -1.068985
 H        -0.502562        -0.805752         0.013181
 H        -0.366751         1.069685         0.738860
 H         1.966860         0.946007         2.245822
 H         1.534982        -0.763494         2.166572
 H         3.961903        -0.914264         1.981224
 H         2.772068         2.770764         0.645408
 H         4.092983         2.212582        -0.548991
 H         2.442615         0.970007        -1.671940
 H         4.018849        -0.756656        -0.941281
