19
Iteration:   685
 C        -0.090000         0.101981        -0.084695
 C         1.427642         0.051525         0.164525
 C         1.981025        -0.090327         1.579682
 C         3.434017        -0.218366         1.128915
 O         4.140196         1.031011         1.250851
 C         3.325057         1.963823         0.549223
 C         2.506526         0.946917        -0.432754
 C         3.191428        -0.350822        -0.383648
 O         2.082374        -1.138125        -0.549643
 H        -0.245625        -0.952075        -0.194571
 H        -0.708721         0.593501         0.642346
 H        -0.384480         0.577537        -1.043790
 H         1.780427         0.850958         2.281407
 H         1.569958        -0.960227         2.156762
 H         3.885789        -1.009806         1.663418
 H         2.693002         2.634912         1.089240
 H         3.922647         2.658188        -0.107285
 H         2.274281         1.289500        -1.422028
 H         4.056902        -0.763392        -0.939439
