19
Iteration:  1053charge 0 multiplicity 1
 C        -0.122580         0.154138        -0.091894
 C         1.419227         0.056184         0.191316
 C         1.907202         0.044557         1.619169
 C         3.442133        -0.144381         1.212021
 O         4.126084         1.161330         1.236836
 C         3.352915         1.813839         0.217167
 C         2.514889         0.840410        -0.543926
 C         3.314575        -0.482886        -0.285864
 O         2.025881        -1.165851        -0.345508
 H        -0.560352         0.956372        -0.702412
 H        -0.408446        -0.815385        -0.715913
 H        -0.771624         0.080340         0.744417
 H         1.876115         0.965632         2.205443
 H         1.543574        -0.954004         2.347497
 H         4.044184        -0.763687         1.963627
 H         2.931831         2.820758         0.501824
 H         4.108231         2.232123        -0.490436
 H         2.323744         1.189393        -1.554905
 H         4.250099        -0.956822        -0.768854
