19
Iteration:   296charge 0 multiplicity 1
 C         0.014000         0.326576         0.112936
 C         1.435199        -0.037012         0.152887
 C         2.079937        -0.606062         1.447160
 C         3.533171        -0.293330         1.044746
 O         3.889990         1.011878         1.521557
 C         3.189394         1.941020         0.683245
 C         2.498235         1.057262        -0.422561
 C         3.268251        -0.165365        -0.549895
 O         2.105036        -0.989720        -0.789014
 H        -0.368244         0.356509        -0.895751
 H        -0.692888        -0.277452         0.723147
 H        -0.136773         1.440673         0.441978
 H         1.856272        -0.091237         2.432908
 H         1.734458        -1.713675         1.565276
 H         4.307582        -1.058616         1.279528
 H         2.547876         2.645360         1.145325
 H         3.926271         2.606048         0.120392
 H         2.212460         1.420046        -1.335890
 H         4.179513        -0.296098        -1.219897
