19
Iteration:  3059charge 0 multiplicity 1
 C         0.002281         0.320570        -0.164992
 C         1.401431         0.031290         0.251827
 C         2.052970        -0.158325         1.705248
 C         3.506349        -0.059973         1.328363
 O         4.063148         1.202411         1.152703
 C         3.207310         1.904313         0.095473
 C         2.545389         0.799583        -0.626957
 C         3.301684        -0.514091        -0.217718
 O         1.950139        -1.251482        -0.323915
 H         0.151668         1.307295        -0.640950
 H        -0.327588        -0.484691        -0.785996
 H        -0.672942         0.355222         0.718613
 H         1.702029         0.593949         2.351583
 H         1.588607        -1.036944         2.230016
 H         4.165242        -0.625263         2.086969
 H         2.467099         2.453657         0.714160
 H         3.943563         2.450316        -0.466233
 H         2.059838         0.920587        -1.598399
 H         4.208374        -0.966842        -0.721354
