19
Iteration:  1964charge 0 multiplicity 1
 C         0.005138         0.261296        -0.106894
 C         1.436979         0.080567         0.238001
 C         1.932368        -0.075059         1.591863
 C         3.486209        -0.113553         1.243212
 O         4.046783         1.169489         1.104620
 C         3.248432         1.941827         0.189396
 C         2.577307         0.810658        -0.570665
 C         3.264224        -0.550117        -0.200783
 O         2.017301        -1.243079        -0.297976
 H        -0.174637         1.303713        -0.136941
 H        -0.348514        -0.238161        -1.023088
 H        -0.636381        -0.166154         0.793929
 H         1.866235         0.604342         2.464627
 H         1.751980        -0.992809         1.975019
 H         4.040615        -0.767358         2.012628
 H         2.506740         2.531335         0.823707
 H         3.948981         2.547737        -0.371507
 H         2.251798         1.102094        -1.586200
 H         4.068217        -0.952566        -0.865823
