19
Iteration:  1025
 C        -0.103983        -0.029222        -0.062545
 C         1.427227         0.033420         0.145894
 C         1.854638         0.027804         1.690909
 C         3.409369        -0.095933         1.250504
 O         4.164232         1.132052         1.258651
 C         3.484827         1.923962         0.183817
 C         2.666474         0.917912        -0.623665
 C         3.181369        -0.479108        -0.281185
 O         1.911082        -1.126192        -0.407197
 H        -0.473554         0.744304        -0.754986
 H        -0.377612        -1.041623        -0.181842
 H        -0.603142         0.074842         1.023671
 H         1.656889         0.874113         2.382675
 H         1.639714        -0.797690         2.155473
 H         3.839622        -0.798144         2.019575
 H         2.826792         2.707005         0.555007
 H         4.323213         2.431994        -0.358692
 H         2.647497         1.138954        -1.730624
 H         3.983607        -0.946103        -0.777111
