19
Iteration:  3295
 C        -0.032402         0.114446        -0.109418
 C         1.430815         0.112609         0.248246
 C         1.858980         0.051535         1.707918
 C         3.352746        -0.014434         1.267141
 O         4.187100         1.242440         1.118298
 C         3.437648         1.798096         0.035872
 C         2.604939         0.774572        -0.567800
 C         3.195504        -0.557941        -0.221872
 O         1.948339        -1.205109        -0.239890
 H        -0.259505        -0.990077        -0.468750
 H        -0.828283         0.334217         0.673225
 H        -0.438443         0.670154        -0.967752
 H         1.647772         0.939812         2.291337
 H         1.773032        -0.788033         2.403475
 H         4.019327        -0.628175         1.925911
 H         2.885751         2.616968         0.548163
 H         4.185339         2.200924        -0.764869
 H         2.354032         0.889692        -1.725084
 H         4.023923        -1.119611        -0.681942
