19
Iteration:   516
 C        -0.078000         0.143803        -0.193673
 C         1.373893         0.039691         0.191574
 C         2.012376        -0.240327         1.664968
 C         3.506108        -0.217293         1.116285
 O         4.184566         0.995572         1.283122
 C         3.264499         1.914148         0.615098
 C         2.458489         1.041096        -0.385551
 C         3.228573        -0.280626        -0.473575
 O         2.039140        -1.086062        -0.616403
 H        -0.172067        -0.041630        -1.270581
 H        -0.611093        -0.594423         0.379081
 H        -0.635387         1.040971         0.123457
 H         1.858939         0.609075         2.342324
 H         1.727417        -1.238454         2.215158
 H         4.165675        -0.934574         1.624274
 H         2.570484         2.296446         1.396773
 H         3.923611         2.661352         0.185651
 H         2.117768         1.415042        -1.288415
 H         3.997084        -0.508073        -1.199549
