19
Iteration:  3986
 C        -0.087399         0.209076         0.028230
 C         1.501074         0.153839         0.140021
 C         1.947138        -0.023563         1.565786
 C         3.481232        -0.092443         1.291431
 O         4.101431         1.180430         1.163473
 C         3.263567         1.889952         0.247458
 C         2.585345         0.800175        -0.659618
 C         3.242739        -0.574781        -0.236508
 O         1.989924        -1.237808        -0.343067
 H        -0.544017         1.061393         0.563831
 H        -0.490127         0.201209        -1.066976
 H        -0.364031        -0.685217         0.584486
 H         1.827618         0.815882         2.127774
 H         1.494482        -0.930344         1.977341
 H         4.178376        -0.698656         1.853775
 H         2.514896         2.445378         0.843309
 H         3.872583         2.562414        -0.351941
 H         2.532167         0.996245        -1.771847
 H         4.022322        -1.132530        -0.804492
