19
Iteration:   764
 C        -0.023617         0.378313         0.012097
 C         1.454708         0.003452         0.194013
 C         2.007391        -0.268225         1.524971
 C         3.537839        -0.167918         1.147200
 O         3.907489         1.170640         1.369432
 C         3.236424         1.925668         0.345835
 C         2.521834         0.849637        -0.532634
 C         3.358136        -0.463269        -0.325162
 O         2.059070        -1.214400        -0.543068
 H        -0.201262         1.035018        -0.801374
 H        -0.766458        -0.354075        -0.120630
 H        -0.365231         1.077882         0.845133
 H         1.787408         0.634012         2.218968
 H         1.692583        -1.194114         1.965004
 H         4.195742        -0.843433         1.811018
 H         2.514814         2.486924         0.876631
 H         3.880856         2.562889        -0.277967
 H         2.204120         1.048451        -1.557486
 H         4.187737        -0.787577        -0.973715
