19
Iteration:  4309
 C        -0.136607         0.142903        -0.016516
 C         1.437430         0.073724         0.189280
 C         1.960832         0.073806         1.666707
 C         3.420420        -0.019947         1.306874
 O         4.166798         1.202094         1.107446
 C         3.313806         1.881606         0.059274
 C         2.712243         0.751881        -0.675672
 C         3.227911        -0.587194        -0.154105
 O         1.934522        -1.215507        -0.316335
 H        -0.590056        -0.837744        -0.234272
 H        -0.377309         0.281806         1.124562
 H        -0.642641         1.064411        -0.517501
 H         1.483852         0.821852         2.275033
 H         1.635768        -0.884902         2.078522
 H         4.180297        -0.659797         1.826320
 H         2.546748         2.443828         0.679325
 H         4.012285         2.589580        -0.477875
 H         2.384230         0.808485        -1.796278
 H         4.225039        -1.147724        -0.526140
