19
Iteration:  3214
 C        -0.073578         0.364036        -0.058770
 C         1.432680         0.034342         0.168092
 C         1.884777         0.069858         1.597640
 C         3.517396        -0.078562         1.264671
 O         4.038644         1.248189         1.111745
 C         3.223298         1.897424         0.066168
 C         2.656283         0.672269        -0.566599
 C         3.321287        -0.680542        -0.149676
 O         2.034298        -1.283473        -0.247461
 H        -0.584518        -0.165749         0.690349
 H        -0.271080         1.455340         0.211143
 H        -0.429756         0.157008        -1.123812
 H         1.672951         0.809841         2.435864
 H         1.648393        -0.924451         1.945169
 H         4.131609        -0.598137         1.981600
 H         2.434883         2.565527         0.530374
 H         3.876188         2.564253        -0.470236
 H         2.426650         0.625636        -1.561824
 H         4.092235        -1.210067        -0.721206
