19
Iteration:  3635
 C        -0.084924         0.094605        -0.087913
 C         1.350162         0.018261         0.154414
 C         1.883618         0.043102         1.605469
 C         3.512840        -0.088992         1.226182
 O         4.138162         1.098012         1.238468
 C         3.410728         1.905853         0.181607
 C         2.517214         0.892215        -0.481073
 C         3.266833        -0.478316        -0.220996
 O         1.990683        -1.181043        -0.398491
 H        -0.396551         0.065506        -1.108776
 H        -0.531562        -0.752740         0.367360
 H        -0.571623         0.878832         0.487108
 H         1.842082         1.036901         2.016084
 H         1.608128        -0.755006         2.435489
 H         3.919568        -0.997696         1.836199
 H         2.812270         2.658360         0.700073
 H         4.061840         2.397785        -0.596654
 H         2.450227         1.034451        -1.584406
 H         4.175011        -0.815051        -0.918476
