19
Iteration:  1865charge 0 multiplicity 1
 C        -0.102957         0.053222        -0.079802
 C         1.405529         0.064345         0.201244
 C         1.938278         0.054625         1.665186
 C         3.498347        -0.075242         1.236479
 O         4.113435         1.207113         1.274865
 C         3.489258         1.894395         0.127351
 C         2.524008         0.847549        -0.540505
 C         3.207376        -0.505211        -0.268627
 O         1.922455        -1.252091        -0.398865
 H        -0.548957         0.678729         0.693321
 H        -0.507396         0.300342        -1.019592
 H        -0.473015        -1.066952         0.112677
 H         1.905808         1.078295         2.116769
 H         1.528997        -0.570658         2.358449
 H         4.138261        -0.803136         1.759110
 H         2.928496         2.769999         0.442127
 H         4.223175         2.148221        -0.575759
 H         2.319468         1.080509        -1.660189
 H         4.098319        -0.835956        -0.731396
