19
Iteration:  4823charge 0 multiplicity 1
 C         0.048149         0.409112        -0.086603
 C         1.446129         0.002143         0.218993
 C         1.998464         0.211292         1.645983
 C         3.478577        -0.008968         1.274113
 O         3.978998         1.340579         1.022769
 C         3.299488         1.783779        -0.081623
 C         2.572012         0.587087        -0.666206
 C         3.238025        -0.672557        -0.074173
 O         1.958371        -1.424923        -0.048451
 H        -0.132934         0.740060        -1.125210
 H        -0.673974        -0.456506         0.120776
 H        -0.312208         1.136231         0.598294
 H         1.977358         1.115439         2.237609
 H         1.717080        -0.670151         2.339805
 H         4.281372        -0.535864         1.877420
 H         2.740814         2.693927         0.154995
 H         3.966224         2.163240        -0.826430
 H         2.047197         0.723262        -1.610259
 H         4.124192        -1.245662        -0.511331
