19
Iteration:  1533
 C        -0.061595         0.126634        -0.143153
 C         1.416971         0.041255         0.256185
 C         1.938239         0.151844         1.655630
 C         3.425681        -0.145626         1.216740
 O         4.159890         1.102822         1.148303
 C         3.300153         1.845443         0.223413
 C         2.506575         0.858548        -0.537441
 C         3.242689        -0.498535        -0.296082
 O         2.053528        -1.224272        -0.292995
 H        -0.268226         1.197445        -0.147592
 H        -0.279440        -0.294224        -1.183760
 H        -0.678416        -0.344571         0.568016
 H         1.752271         1.037916         2.191506
 H         1.589146        -0.673364         2.411676
 H         3.983292        -0.825471         1.844405
 H         2.634077         2.676183         0.652076
 H         3.978215         2.390082        -0.459313
 H         2.313264         1.183955        -1.587253
 H         4.048482        -0.901416        -0.870533
