19
Iteration:   671charge 0 multiplicity 1
 C        -0.041053         0.139263        -0.110505
 C         1.383060         0.048746         0.171649
 C         1.953135        -0.133973         1.567532
 C         3.494132        -0.269255         1.152895
 O         4.146509         1.053834         1.237011
 C         3.203109         1.920941         0.493211
 C         2.518472         1.006764        -0.427651
 C         3.338033        -0.389774        -0.365227
 O         2.012622        -1.115770        -0.508191
 H        -0.730485        -0.752988         0.177533
 H        -0.451012         1.015589         0.527245
 H        -0.277524         0.271298        -1.135004
 H         1.850743         0.770379         2.195328
 H         1.528311        -1.095526         2.093660
 H         4.211135        -0.928360         1.613285
 H         2.513274         2.345713         1.284992
 H         3.845252         2.647453        -0.047868
 H         2.358172         1.475515        -1.458430
 H         4.131147        -0.569767        -1.094134
