19
Iteration:  1583charge 0 multiplicity 1
 C        -0.010814         0.403279         0.069426
 C         1.512850         0.049098         0.182521
 C         1.956969        -0.199727         1.639850
 C         3.439996        -0.096587         1.324375
 O         3.868945         1.266860         1.216788
 C         3.388608         1.871930         0.012728
 C         2.590105         0.713326        -0.716345
 C         3.283121        -0.529127        -0.192713
 O         2.016596        -1.231788        -0.323914
 H        -0.326300         1.019241         0.888144
 H        -0.303001         0.778390        -0.894082
 H        -0.468322        -0.705670        -0.014637
 H         1.563534         0.554981         2.426409
 H         1.442646        -1.031971         1.922994
 H         4.307859        -0.560884         1.788070
 H         2.772326         2.694647         0.348283
 H         4.118443         2.450353        -0.609979
 H         2.385066         0.811292        -1.726511
 H         4.112358        -1.053950        -0.645034
