19
Iteration:  4638charge 0 multiplicity 1
 C        -0.098718         0.155896         0.027462
 C         1.356618         0.028014         0.155839
 C         1.928827         0.187710         1.633380
 C         3.415499        -0.010167         1.303807
 O         4.181292         1.204003         1.038219
 C         3.328793         1.885726        -0.024232
 C         2.656225         0.675185        -0.626089
 C         3.255509        -0.630984        -0.069832
 O         1.956943        -1.230231        -0.225457
 H        -0.514704        -0.574403         0.636435
 H        -0.386136         1.204114         0.377661
 H        -0.421623         0.025526        -0.949840
 H         1.645734         1.099546         2.092969
 H         1.532326        -0.704435         2.170888
 H         3.988432        -0.676329         1.947494
 H         2.601835         2.649248         0.280015
 H         4.097169         2.467866        -0.574408
 H         2.751739         0.574230        -1.682794
 H         4.089022        -1.079514        -0.502266
