19
Iteration:  3863
 C        -0.033937         0.410958        -0.025816
 C         1.458343        -0.019416         0.117369
 C         1.995509        -0.036270         1.636714
 C         3.462874        -0.155026         1.287685
 O         4.046576         1.206765         1.134484
 C         3.172215         1.936382         0.227121
 C         2.553536         0.755738        -0.608913
 C         3.287871        -0.545815        -0.256883
 O         2.058216        -1.372361        -0.316190
 H         0.220393         1.481469         0.188340
 H        -0.422772         0.480291        -1.127791
 H        -0.679914        -0.118401         0.781144
 H         1.824768         0.797239         2.250598
 H         1.437958        -0.927279         2.100784
 H         4.256817        -0.623275         1.932248
 H         2.387703         2.616885         0.678869
 H         3.667410         2.627591        -0.440810
 H         2.369968         1.068212        -1.632158
 H         4.212927        -0.862055        -0.748117
