19
Iteration:  4506
 C        -0.005752         0.448518        -0.009737
 C         1.454490        -0.063828         0.206797
 C         1.997974         0.070170         1.680613
 C         3.498150        -0.058467         1.256022
 O         3.955991         1.279855         1.148538
 C         3.250182         1.855008        -0.020992
 C         2.569655         0.683679        -0.655085
 C         3.295218        -0.638016        -0.208716
 O         2.034108        -1.369062        -0.149857
 H        -0.303761         1.297290         0.553068
 H        -0.203760         0.659123        -1.134029
 H        -0.660262        -0.458571         0.148358
 H         1.791013         1.074392         2.020895
 H         1.417199        -0.573797         2.340270
 H         4.082488        -0.606837         1.921005
 H         2.598314         2.698143         0.288400
 H         3.970772         2.251791        -0.795379
 H         2.387711         0.664130        -1.772284
 H         4.067777        -1.087850        -0.920818
