19
Iteration:   465
 C        -0.038107         0.339032         0.176837
 C         1.459533        -0.004615         0.160248
 C         2.028867        -0.430289         1.494714
 C         3.492028        -0.323367         1.107245
 O         3.919896         1.143536         1.509502
 C         3.188380         1.970894         0.467804
 C         2.568376         0.975436        -0.448379
 C         3.314008        -0.356674        -0.498570
 O         2.097059        -1.082160        -0.753119
 H        -0.718066        -0.628980        -0.041721
 H        -0.388289         1.079921         0.999075
 H        -0.167690         0.926404        -0.712136
 H         1.622796         0.227905         2.295061
 H         1.720464        -1.519973         1.721018
 H         4.324786        -0.957338         1.537857
 H         2.395059         2.570535         0.891527
 H         4.059629         2.580488        -0.062591
 H         2.249373         1.401024        -1.557299
 H         4.181173        -0.643292        -1.089486
