19
Iteration:  2173charge 0 multiplicity 1
 C        -0.118686         0.015745        -0.105237
 C         1.427986         0.046425         0.146632
 C         1.937444         0.085587         1.625659
 C         3.478240        -0.107047         1.290112
 O         4.143047         1.130704         1.218896
 C         3.470331         1.887205         0.226210
 C         2.536013         0.882265        -0.568740
 C         3.164775        -0.458321        -0.373274
 O         1.980902        -1.201306        -0.261877
 H        -0.416073         0.881480        -0.490175
 H        -0.481105        -0.810790        -0.801906
 H        -0.663460        -0.132497         0.816510
 H         1.749933         1.081744         2.104320
 H         1.360875        -0.591925         2.161740
 H         4.033230        -0.851207         1.960202
 H         2.942293         2.813354         0.519414
 H         4.305822         2.232164        -0.485355
 H         2.132877         1.286537        -1.460951
 H         4.010473        -0.939300        -0.923187
