19
Iteration:  1910
 C         0.037162         0.469738         0.002541
 C         1.478070        -0.050810         0.173473
 C         1.958813        -0.116982         1.672632
 C         3.497620        -0.137489         1.254590
 O         3.962828         1.251984         1.204020
 C         3.196791         1.940780         0.134150
 C         2.567645         0.766881        -0.667901
 C         3.284047        -0.552144        -0.249090
 O         2.035206        -1.311267        -0.330504
 H        -0.072531         1.508754         0.132300
 H        -0.253396         0.134887        -1.030136
 H        -0.620686        -0.237488         0.698946
 H         1.642308         0.679374         2.412744
 H         1.676974        -1.044634         2.055172
 H         4.282265        -0.815377         1.751700
 H         2.504891         2.591550         0.688173
 H         3.878768         2.533448        -0.403732
 H         2.350344         0.911447        -1.739225
 H         4.106500        -1.092148        -0.781592
