19
Iteration:  4928charge 0 multiplicity 1
 C        -0.067199        -0.040246        -0.110337
 C         1.460638         0.056575         0.225728
 C         1.889433         0.341112         1.668191
 C         3.407772        -0.063755         1.271893
 O         4.305077         1.222285         0.956387
 C         3.440516         1.852895         0.020094
 C         2.533670         0.784758        -0.622305
 C         3.187869        -0.604322        -0.155701
 O         1.845532        -1.259652        -0.030590
 H        -0.312848        -0.681597        -0.898310
 H        -0.608036        -0.408435         0.808363
 H        -0.482161         0.982843        -0.356274
 H         1.827979         1.384530         2.003267
 H         1.394849        -0.323497         2.359487
 H         4.029006        -0.602757         1.878062
 H         2.761398         2.609828         0.455450
 H         4.118881         2.179087        -0.822829
 H         2.294600         0.702249        -1.704794
 H         4.045209        -1.104229        -0.495881
