19
Iteration:    11charge 0 multiplicity 1
 C        -0.117713         0.074145        -0.009465
 C         1.407800         0.037608         0.181518
 C         2.084653        -0.627852         1.391310
 C         3.583511        -0.424455         0.958289
 O         4.069206         0.818390         1.502751
 C         3.200435         1.935112         0.996586
 C         2.432746         1.282682        -0.208851
 C         3.272635         0.005016        -0.589676
 O         2.082879        -0.750291        -1.012689
 H        -0.687051         0.311742         0.960682
 H        -0.418533         0.762760        -0.803809
 H        -0.420186        -0.936349        -0.308786
 H         1.654084        -0.198965         2.317862
 H         1.805667        -1.632293         1.366400
 H         4.149450        -1.323109         1.078615
 H         2.555510         2.221127         1.841799
 H         4.020585         2.781480         0.837235
 H         2.064168         1.827284        -1.102468
 H         4.186286        -0.216384        -1.074747
