19
Iteration:   223charge 0 multiplicity 1
 C        -0.100868         0.072649        -0.014652
 C         1.374124         0.081228         0.115614
 C         2.071539        -0.398181         1.440163
 C         3.527346        -0.305810         0.992574
 O         4.104597         0.886617         1.435507
 C         3.230355         1.886639         0.873181
 C         2.434436         1.180341        -0.309177
 C         3.299665        -0.191058        -0.476845
 O         2.044030        -0.916683        -0.838250
 H        -0.619292        -0.593780         0.633467
 H        -0.558230         1.048232         0.105699
 H        -0.297695        -0.243600        -1.063972
 H         1.942886         0.278827         2.199463
 H         1.828249        -1.386173         1.832676
 H         4.182621        -1.057059         1.433448
 H         2.586245         2.362766         1.682061
 H         3.730312         2.744741         0.381010
 H         2.420627         1.636972        -1.354058
 H         4.076500        -0.154384        -1.260623
