19
Iteration:   889
 C        -0.156643         0.091555         0.008679
 C         1.349969         0.035696         0.125619
 C         1.964997        -0.074728         1.617813
 C         3.435152        -0.157773         1.254914
 O         4.050358         1.115479         1.306138
 C         3.407782         1.925035         0.283935
 C         2.619298         0.903509        -0.581374
 C         3.287790        -0.436680        -0.347575
 O         2.051688        -1.107316        -0.470750
 H        -0.706680        -0.774469         0.548933
 H        -0.618137         1.122255         0.349277
 H        -0.465488        -0.031948        -1.019786
 H         1.715959         0.784895         2.142347
 H         1.526192        -0.972376         2.177682
 H         3.935878        -0.842861         1.842756
 H         2.822403         2.747916         0.659302
 H         4.194354         2.397263        -0.264086
 H         2.614316         0.922547        -1.680974
 H         4.157846        -0.856466        -0.861802
