19
Iteration:  2481
 C        -0.128169         0.127176        -0.096827
 C         1.368021         0.020228         0.201790
 C         1.999097         0.174514         1.588823
 C         3.445232        -0.119578         1.232426
 O         4.132138         1.173140         1.169121
 C         3.375111         1.829721         0.169070
 C         2.547538         0.767414        -0.534355
 C         3.243532        -0.511565        -0.232717
 O         2.026683        -1.207261        -0.272269
 H        -0.652109         0.949636         0.596757
 H        -0.381159         0.382841        -1.148286
 H        -0.601563        -0.832717         0.120269
 H         2.031785         1.063617         2.156689
 H         1.489200        -0.735794         2.155329
 H         4.078714        -0.710420         1.915652
 H         2.639129         2.665574         0.660563
 H         4.015797         2.366631        -0.636172
 H         2.317716         0.993996        -1.659213
 H         4.028839        -0.990858        -0.840788
