19
Iteration:  2866charge 0 multiplicity 1
 C        -0.076192         0.153055        -0.047007
 C         1.455185         0.074482         0.202090
 C         1.939348         0.074049         1.639908
 C         3.501355        -0.121994         1.231167
 O         4.041418         1.175365         1.238692
 C         3.390637         1.899908         0.021332
 C         2.521450         0.779611        -0.559724
 C         3.182607        -0.529760        -0.228365
 O         2.021113        -1.245668        -0.269264
 H        -0.573984         0.735301         0.619011
 H        -0.117736         0.567652        -1.073109
 H        -0.521122        -0.859712        -0.114486
 H         1.931820         0.996814         2.303970
 H         1.342015        -0.659426         2.201383
 H         4.173759        -0.822863         1.823036
 H         2.874757         2.844458         0.361405
 H         4.200286         2.281424        -0.648182
 H         2.377464         0.942503        -1.569873
 H         4.044600        -0.793148        -0.914449
