19
Iteration:  3588charge 0 multiplicity 1
 C        -0.056646         0.263404        -0.176848
 C         1.435244         0.070931         0.207182
 C         2.005453        -0.046628         1.651319
 C         3.557968        -0.187775         1.233455
 O         4.085509         1.218844         1.204668
 C         3.245695         1.879786         0.230176
 C         2.540931         0.789631        -0.566374
 C         3.280974        -0.548731        -0.242773
 O         1.954658        -1.179068        -0.291623
 H        -0.226767         0.936671        -1.071421
 H        -0.470339        -0.686191        -0.518456
 H        -0.734280         0.489513         0.649105
 H         1.867289         0.899999         2.288401
 H         1.424557        -0.917441         2.078446
 H         4.277344        -0.840076         1.668510
 H         2.575433         2.669659         0.640576
 H         3.917447         2.347298        -0.476256
 H         2.223471         0.862334        -1.576593
 H         4.097927        -0.980407        -0.712991
