19
Iteration:  4977charge 0 multiplicity 1
 C         0.017983         0.307761        -0.015745
 C         1.372891        -0.015514         0.204891
 C         1.985110         0.124878         1.665831
 C         3.508300         0.014501         1.299815
 O         4.037433         1.293117         1.072535
 C         3.310496         1.855634        -0.130703
 C         2.595380         0.626415        -0.658403
 C         3.219720        -0.617444        -0.150194
 O         1.976674        -1.350191        -0.098959
 H        -0.620256        -0.529383        -0.489812
 H        -0.447668         0.485663         0.966877
 H        -0.161324         1.202311        -0.649031
 H         1.705800         1.157682         1.994314
 H         1.549228        -0.568548         2.427250
 H         4.185536        -0.528886         2.079300
 H         2.550598         2.621074         0.157174
 H         4.111708         2.201362        -0.747968
 H         2.429619         0.607459        -1.728499
 H         4.059389        -1.231039        -0.563534
