19
Iteration:  2498
 C        -0.141513         0.060461        -0.161585
 C         1.382509         0.103784         0.172365
 C         1.942652         0.074727         1.704848
 C         3.505764        -0.095216         1.252814
 O         4.221389         1.086987         1.089684
 C         3.349998         1.957383         0.178043
 C         2.524801         0.913685        -0.609844
 C         3.261365        -0.529728        -0.220721
 O         1.931646        -1.253739        -0.181041
 H        -0.632758         0.718089         0.448116
 H        -0.272319         0.271203        -1.254847
 H        -0.461322        -0.988236        -0.074336
 H         1.692766         1.165296         1.951026
 H         1.610458        -0.703802         2.325700
 H         4.080708        -0.792776         1.869909
 H         2.895227         2.645555         0.755929
 H         4.019864         2.498909        -0.424480
 H         2.352133         1.146688        -1.605917
 H         4.068795        -1.052828        -0.711007
