19
Iteration:   457charge 0 multiplicity 1
 C        -0.021705         0.366770         0.180039
 C         1.505287         0.011432         0.152335
 C         1.992852        -0.468521         1.459384
 C         3.499262        -0.322661         1.076930
 O         3.858488         1.142659         1.494457
 C         3.232097         1.957035         0.507791
 C         2.506725         0.968866        -0.457139
 C         3.395313        -0.329343        -0.435509
 O         2.068497        -1.099977        -0.776110
 H        -0.624992        -0.502568         0.487938
 H        -0.187373         1.137021         0.949735
 H        -0.289079         0.665709        -0.830250
 H         1.755025         0.276028         2.227751
 H         1.686237        -1.384437         1.721811
 H         4.379378        -0.821453         1.519086
 H         2.538169         2.745360         0.876431
 H         3.958595         2.556770        -0.003351
 H         2.126906         1.187952        -1.519224
 H         4.211647        -0.683788        -1.130038
