19
Iteration:  2054charge 0 multiplicity 1
 C        -0.119604         0.191955        -0.069127
 C         1.366940         0.035954         0.214673
 C         1.960080        -0.064861         1.672509
 C         3.448481        -0.107554         1.291365
 O         4.114842         1.259543         1.140628
 C         3.322312         1.930477         0.173252
 C         2.699430         0.788979        -0.616936
 C         3.261058        -0.574911        -0.218538
 O         1.948016        -1.217671        -0.351013
 H        -0.605579         0.640644         0.814261
 H        -0.268627         0.894668        -0.982682
 H        -0.530667        -0.783191        -0.337135
 H         1.900480         0.794532         2.306219
 H         1.521987        -0.887465         2.186878
 H         4.249059        -0.542799         1.951903
 H         2.612932         2.703691         0.567388
 H         4.007847         2.337163        -0.508669
 H         2.427933         0.912961        -1.631341
 H         4.121642        -1.076887        -0.761673
