19
Iteration:  1042
 C        -0.161382         0.042887        -0.053343
 C         1.395610         0.125461         0.178096
 C         1.953914         0.029837         1.588767
 C         3.427667        -0.156399         1.270973
 O         4.083687         1.102961         1.188568
 C         3.465471         1.947723         0.185616
 C         2.584637         0.891688        -0.555485
 C         3.256686        -0.471471        -0.188083
 O         2.001328        -1.166256        -0.377381
 H        -0.413290         0.847262        -0.751801
 H        -0.181757        -0.973056        -0.601046
 H        -0.743775         0.013059         0.826795
 H         1.805477         0.948827         2.169515
 H         1.284506        -0.857134         2.149870
 H         3.992107        -0.928903         1.867312
 H         2.917577         2.747952         0.744513
 H         4.228724         2.255373        -0.541106
 H         2.255256         1.031686        -1.584913
 H         4.132274        -0.921047        -0.770270
