19
Iteration:  3537charge 0 multiplicity 1
 C        -0.076686         0.365768         0.046365
 C         1.461767         0.056056         0.107795
 C         1.984417        -0.118521         1.581712
 C         3.420447        -0.151088         1.334564
 O         4.012533         1.213591         1.190828
 C         3.265658         1.896696         0.081201
 C         2.606871         0.811754        -0.568413
 C         3.319602        -0.586570        -0.174583
 O         2.049822        -1.237402        -0.366520
 H        -0.335213         1.307201        -0.431631
 H        -0.631631        -0.294686        -0.549285
 H        -0.606448         0.279341         0.997622
 H         1.728649         0.616218         2.252660
 H         1.553746        -1.125712         1.811440
 H         4.101527        -0.563742         2.133288
 H         2.514435         2.597669         0.444884
 H         3.905855         2.473967        -0.637557
 H         2.516419         0.664152        -1.613151
 H         4.180763        -0.800952        -0.894382
