19
Iteration:  3764
 C        -0.086061         0.101038         0.006361
 C         1.415608         0.070791         0.148524
 C         1.960835        -0.021121         1.546706
 C         3.452040        -0.116368         1.260022
 O         4.123426         1.156088         1.170803
 C         3.358488         1.925648         0.256336
 C         2.613890         0.864067        -0.557700
 C         3.283602        -0.522910        -0.191203
 O         1.924194        -1.177749        -0.451669
 H        -0.333856         0.446917        -1.064088
 H        -0.415661        -0.930847         0.241726
 H        -0.596570         0.859449         0.735374
 H         1.716553         0.811387         2.182078
 H         1.459883        -0.779164         2.221228
 H         3.967309        -0.822899         2.061549
 H         2.631126         2.641363         0.762819
 H         4.035006         2.511204        -0.389499
 H         2.361442         1.171266        -1.581817
 H         4.142231        -1.111662        -0.705792
