19
Iteration:  2379
 C        -0.081733         0.222466        -0.104331
 C         1.435782         0.070857         0.179926
 C         2.023715         0.022282         1.712534
 C         3.445206        -0.117416         1.279814
 O         4.108986         1.194465         1.161394
 C         3.263926         1.849458         0.166269
 C         2.525353         0.822745        -0.619961
 C         3.271191        -0.611328        -0.253344
 O         2.011600        -1.211594        -0.297580
 H        -0.290793         1.293325        -0.123085
 H        -0.383407        -0.241972        -1.147700
 H        -0.797644        -0.222803         0.657930
 H         1.968372         1.001205         2.338179
 H         1.672915        -0.882838         2.151470
 H         4.109654        -0.811929         1.768349
 H         2.515443         2.599690         0.697116
 H         3.799779         2.579281        -0.490126
 H         2.496034         1.005974        -1.629712
 H         4.088789        -1.093451        -0.766827
