19
Iteration:  4971charge 0 multiplicity 1
 C        -0.064327         0.273362        -0.021812
 C         1.351083        -0.003217         0.155797
 C         1.958580         0.162500         1.693471
 C         3.500185        -0.030825         1.301198
 O         4.092106         1.304923         1.034339
 C         3.304891         1.834662        -0.095900
 C         2.580441         0.614351        -0.656925
 C         3.309796        -0.615744        -0.098579
 O         1.981960        -1.318999        -0.105217
 H        -0.558644        -0.526268        -0.465021
 H        -0.546206         0.408536         0.950381
 H        -0.316986         1.161736        -0.617277
 H         1.918688         1.214620         2.035637
 H         1.474817        -0.516230         2.372001
 H         4.054745        -0.574772         1.998298
 H         2.639816         2.571713         0.357212
 H         4.060888         2.174613        -0.872807
 H         2.461599         0.757307        -1.755477
 H         4.047118        -1.207520        -0.587143
