19
Iteration:  3950charge 0 multiplicity 1
 C        -0.099317         0.049939        -0.032992
 C         1.297034        -0.002664         0.202474
 C         2.011095         0.022193         1.648918
 C         3.492402        -0.091669         1.245283
 O         4.088700         1.140156         1.207252
 C         3.494702         1.865977         0.128204
 C         2.485430         0.937707        -0.586017
 C         3.204765        -0.445567        -0.234533
 O         2.011272        -1.194280        -0.355145
 H        -0.767039         0.490576         0.680215
 H        -0.299753         0.487680        -1.007708
 H        -0.548567        -0.947036        -0.290387
 H         1.799861         0.955363         1.982245
 H         1.505875        -0.521023         2.448941
 H         3.937891        -0.708969         1.960512
 H         3.311964         2.836785         0.615775
 H         4.308369         2.077411        -0.548140
 H         2.207818         1.095906        -1.599022
 H         4.018089        -0.868738        -0.725269
