19
Iteration:  3442
 C        -0.075080         0.151170        -0.020048
 C         1.392134         0.142649         0.091818
 C         1.989026         0.090590         1.623420
 C         3.415399        -0.095429         1.312262
 O         4.128981         1.213666         1.135731
 C         3.330852         1.887776         0.156830
 C         2.605254         0.776878        -0.583295
 C         3.281892        -0.662861        -0.139680
 O         1.953391        -1.244916        -0.370885
 H        -0.633677         0.425171         0.890623
 H        -0.427620         0.970257        -0.745846
 H        -0.502383        -0.834318        -0.407838
 H         1.758780         1.074190         2.164540
 H         1.553781        -0.810053         2.040472
 H         4.030576        -0.784449         1.979203
 H         2.667096         2.604827         0.713198
 H         4.002568         2.523836        -0.427736
 H         2.497480         1.144436        -1.617071
 H         4.171381        -1.241095        -0.521034
