19
Iteration:  1982charge 0 multiplicity 1
 C        -0.131842         0.097020        -0.068445
 C         1.416214         0.072225         0.131206
 C         1.984472        -0.005615         1.686831
 C         3.470478        -0.124014         1.267860
 O         4.160556         1.190930         1.214639
 C         3.344587         1.917850         0.178258
 C         2.556251         0.825055        -0.568976
 C         3.255942        -0.488340        -0.268378
 O         1.952113        -1.184900        -0.341664
 H        -0.568374         1.147718         0.048816
 H        -0.242530        -0.235020        -1.061759
 H        -0.594764        -0.623216         0.535268
 H         1.593247         0.896633         2.163654
 H         1.402738        -0.880078         2.168741
 H         4.137002        -0.759643         1.779924
 H         2.715610         2.622124         0.702794
 H         4.176736         2.266779        -0.538587
 H         2.487585         0.977266        -1.710447
 H         4.046680        -0.972122        -0.747799
