19
Iteration:  3464charge 0 multiplicity 1
 C        -0.057787         0.146746        -0.123800
 C         1.359379         0.027256         0.157001
 C         1.932811         0.071674         1.647997
 C         3.447624        -0.100120         1.326280
 O         4.212676         1.130618         1.132114
 C         3.325947         1.947516         0.173627
 C         2.630857         0.787433        -0.571200
 C         3.232878        -0.496350        -0.240388
 O         1.959715        -1.221414        -0.265485
 H        -0.656022         0.629659         0.668528
 H        -0.351678         0.684794        -1.094957
 H        -0.563973        -0.862558        -0.159356
 H         1.591953         1.069354         2.056484
 H         1.524982        -0.768305         2.194873
 H         4.085758        -0.830665         1.925452
 H         2.617602         2.603807         0.732697
 H         3.978712         2.568881        -0.444395
 H         2.322454         0.837651        -1.645710
 H         3.946783        -1.027359        -0.925283
