19
Iteration:  2124
 C         0.057707         0.313847        -0.010264
 C         1.436674        -0.007807         0.172988
 C         1.974396        -0.070143         1.615128
 C         3.469725        -0.071737         1.288556
 O         4.003072         1.268312         1.177389
 C         3.290481         1.881941         0.149702
 C         2.568697         0.778859        -0.579532
 C         3.301463        -0.581098        -0.208172
 O         1.939322        -1.265025        -0.392399
 H        -0.155220         1.528652         0.181083
 H        -0.285319         0.031061        -1.001841
 H        -0.582083        -0.306423         0.724185
 H         1.675959         0.738667         2.349085
 H         1.705320        -1.130968         2.074017
 H         3.916348        -0.664264         2.044792
 H         2.500807         2.555252         0.521773
 H         4.000582         2.409901        -0.554047
 H         2.577509         1.021652        -1.699142
 H         4.083408        -1.099963        -0.737406
