19
Iteration:  1047charge 0 multiplicity 1
 C        -0.167658         0.085017        -0.072209
 C         1.431678         0.108455         0.175326
 C         1.918070         0.013430         1.601638
 C         3.440164        -0.155227         1.236836
 O         4.096455         1.129543         1.195148
 C         3.424497         1.895939         0.216329
 C         2.554147         0.857206        -0.554913
 C         3.295721        -0.473454        -0.211626
 O         2.011432        -1.160419        -0.364801
 H        -0.423705         0.904146        -0.756283
 H        -0.204843        -0.849262        -0.538451
 H        -0.874283        -0.060752         0.849578
 H         1.893214         0.951771         2.195056
 H         1.461606        -0.692676         2.110127
 H         3.923868        -0.875646         1.896798
 H         2.966790         2.789473         0.639539
 H         4.173106         2.191636        -0.538332
 H         2.174661         1.131275        -1.557784
 H         4.133246        -0.906805        -0.676518
