19
Iteration:  3843
 C        -0.022753         0.383253        -0.058702
 C         1.441309         0.018524         0.238371
 C         1.991993        -0.129082         1.646512
 C         3.501423        -0.106310         1.223779
 O         4.018439         1.207146         1.143746
 C         3.225247         1.894621         0.154146
 C         2.577499         0.788825        -0.559436
 C         3.302224        -0.565256        -0.213250
 O         2.008888        -1.207160        -0.332654
 H        -0.210524         1.369122        -0.429588
 H        -0.119362        -0.333938        -0.939359
 H        -0.608043         0.009934         0.771381
 H         1.625667         0.685760         2.201632
 H         1.662449        -1.141537         2.033660
 H         4.021002        -0.768957         1.819240
 H         2.514774         2.548640         0.710676
 H         3.889399         2.566554        -0.399828
 H         2.233462         0.820603        -1.599114
 H         4.059822        -1.105332        -0.716466
