19
Iteration:   422charge 0 multiplicity 1
 C        -0.024507         0.317544         0.070966
 C         1.430249         0.074254         0.226840
 C         1.994262        -0.533518         1.497119
 C         3.538302        -0.268875         1.095984
 O         3.925742         1.096198         1.465159
 C         3.245526         1.965043         0.536511
 C         2.546217         0.986168        -0.496466
 C         3.344547        -0.301337        -0.481269
 O         2.062107        -1.046174        -0.722963
 H        -0.567671         0.036997         1.043889
 H        -0.376572         1.335533        -0.222681
 H        -0.399885        -0.353215        -0.633588
 H         1.797765         0.008904         2.421886
 H         1.603769        -1.481001         1.589937
 H         4.163795        -1.084314         1.499311
 H         2.557757         2.518771         1.160035
 H         3.997680         2.610562         0.045183
 H         2.036155         1.402278        -1.488514
 H         4.195479        -0.598193        -1.087238
