19
Iteration:  4555
 C         0.003570         0.280520        -0.080891
 C         1.408802         0.033712         0.272527
 C         1.955903         0.032169         1.654283
 C         3.484505        -0.004261         1.339125
 O         4.111643         1.265711         0.985316
 C         3.285725         1.912789        -0.014916
 C         2.588121         0.664011        -0.660783
 C         3.285827        -0.653732        -0.085786
 O         1.909379        -1.289575        -0.191925
 H        -0.502114         0.663005         0.902188
 H        -0.091281         1.105745        -0.798231
 H        -0.527684        -0.609379        -0.463808
 H         1.683983         0.862550         2.371930
 H         1.579119        -0.866383         2.178409
 H         4.168859        -0.559294         2.095352
 H         2.405597         2.535924         0.306146
 H         4.063651         2.479984        -0.553338
 H         2.202651         0.661573        -1.696430
 H         4.239431        -1.013505        -0.515333
