19
Iteration:  3293
 C        -0.032219         0.098411        -0.124103
 C         1.435123         0.109456         0.246015
 C         1.872779         0.035998         1.709815
 C         3.359784         0.006872         1.264052
 O         4.182439         1.232310         1.130331
 C         3.435508         1.810582         0.020605
 C         2.607323         0.769319        -0.570128
 C         3.190914        -0.561580        -0.233903
 O         1.943952        -1.194287        -0.229506
 H        -0.336177        -0.951849        -0.435280
 H        -0.831312         0.358024         0.685775
 H        -0.388007         0.734705        -0.935242
 H         1.593739         0.939033         2.366743
 H         1.757342        -0.768582         2.381433
 H         3.999058        -0.618285         1.944104
 H         2.925883         2.635781         0.565334
 H         4.197125         2.168937        -0.730810
 H         2.322661         0.838038        -1.707735
 H         4.016223        -1.103845        -0.687637
