19
Iteration:  3259
 C        -0.101220         0.282924        -0.109663
 C         1.412090         0.101417         0.206495
 C         1.988160         0.003071         1.683937
 C         3.449382        -0.070191         1.219577
 O         4.001430         1.299811         1.190273
 C         3.366732         1.827905         0.033915
 C         2.595304         0.703868        -0.552707
 C         3.266781        -0.610502        -0.215995
 O         2.026410        -1.310992        -0.230288
 H        -0.487575        -0.719945        -0.148035
 H        -0.561046         0.797034         0.826185
 H        -0.200531         0.883356        -1.011893
 H         1.918354         1.125558         1.986060
 H         1.467488        -0.600912         2.361549
 H         3.995820        -0.724760         1.887707
 H         2.844249         2.793530         0.276831
 H         4.065750         2.112057        -0.788024
 H         2.337157         0.703116        -1.628298
 H         4.154058        -0.991792        -0.696857
