19
Iteration:   641
 C        -0.013743         0.329036        -0.058310
 C         1.411295         0.076199         0.214313
 C         2.052224        -0.332839         1.588610
 C         3.498396        -0.219029         1.133530
 O         4.032884         1.157526         1.325298
 C         3.162271         1.936459         0.456611
 C         2.560730         0.911902        -0.440025
 C         3.302608        -0.461990        -0.400521
 O         2.016062        -1.167348        -0.585454
 H        -0.674016         0.101023         0.767872
 H        -0.150095         1.367129        -0.372254
 H        -0.456449        -0.210723        -0.848183
 H         1.813624         0.278815         2.550639
 H         1.824504        -1.419352         1.875666
 H         4.244985        -0.785209         1.590547
 H         2.378314         2.506350         0.948104
 H         3.682068         2.747365        -0.139322
 H         2.462261         1.431533        -1.414830
 H         4.114588        -0.676132        -1.123234
