19
Iteration:  3269
 C        -0.116928         0.242647        -0.111569
 C         1.402280         0.029125         0.192217
 C         1.984342         0.033064         1.643138
 C         3.477961        -0.185676         1.302790
 O         4.035022         1.298744         1.150250
 C         3.439279         1.870175        -0.008266
 C         2.545193         0.816138        -0.609192
 C         3.254506        -0.533458        -0.122097
 O         1.969579        -1.313322        -0.204513
 H        -0.458974        -0.731056        -0.354414
 H        -0.891635         0.606671         0.591706
 H        -0.317337         0.790995        -1.036466
 H         1.936247         0.978931         2.296535
 H         1.655454        -0.721148         2.315137
 H         4.236786        -0.665293         1.894867
 H         2.921881         2.780295         0.363711
 H         4.213537         2.130856        -0.700744
 H         2.454834         0.900953        -1.667224
 H         4.039750        -1.039527        -0.667464
