19
Iteration:  2757charge 0 multiplicity 1
 C        -0.005287         0.408147        -0.046431
 C         1.416176         0.015835         0.257421
 C         2.011787        -0.129843         1.643401
 C         3.552632        -0.118331         1.264796
 O         3.932737         1.245508         1.166461
 C         3.223740         1.908779         0.053103
 C         2.589921         0.739411        -0.679625
 C         3.273856        -0.577038        -0.172265
 O         2.028946        -1.265510        -0.267198
 H        -0.066293         1.451802        -0.046335
 H        -0.256027         0.070253        -1.118856
 H        -0.868459        -0.025163         0.611701
 H         1.721649         0.647603         2.436659
 H         1.884029        -1.183742         1.922344
 H         4.151200        -0.632992         2.058009
 H         2.471697         2.680810         0.508013
 H         4.069716         2.431633        -0.474649
 H         2.339107         0.821252        -1.661942
 H         4.117265        -0.845122        -0.859353
