19
Iteration:  4553charge 0 multiplicity 1
 C         0.006174         0.290916        -0.067404
 C         1.421382         0.028468         0.267671
 C         1.938434         0.026117         1.641965
 C         3.499603        -0.000658         1.361790
 O         4.098525         1.254838         0.987517
 C         3.266339         1.909581        -0.033068
 C         2.600740         0.664211        -0.662947
 C         3.294425        -0.651846        -0.098202
 O         1.908376        -1.292636        -0.186308
 H        -0.475364         0.707164         0.910676
 H        -0.112190         1.169039        -0.833157
 H        -0.525182        -0.563320        -0.438715
 H         1.675344         0.833363         2.273721
 H         1.619398        -0.867380         2.203562
 H         4.232639        -0.536887         2.072675
 H         2.399771         2.505982         0.327026
 H         4.024310         2.567378        -0.530990
 H         2.244068         0.714917        -1.656396
 H         4.189089        -1.067696        -0.461707
