19
Iteration:  3909charge 0 multiplicity 1
 C        -0.065398         0.172938        -0.058161
 C         1.456484         0.061280         0.239778
 C         1.983020        -0.055037         1.654652
 C         3.472567        -0.165679         1.315370
 O         4.045269         1.206520         1.143146
 C         3.378038         1.903357         0.112620
 C         2.561667         0.881521        -0.652600
 C         3.248661        -0.527244        -0.200380
 O         1.933824        -1.202497        -0.301102
 H        -0.780618         0.611897         0.621851
 H        -0.269516         0.794466        -1.069235
 H        -0.410478        -0.900800        -0.236432
 H         1.899684         0.709327         2.401301
 H         1.732280        -1.049275         2.146636
 H         4.199129        -0.651737         1.837503
 H         2.689015         2.724357         0.443682
 H         4.118694         2.412756        -0.524611
 H         2.455024         1.182553        -1.723047
 H         3.985413        -1.086637        -0.696694
