19
Iteration:  4654charge 0 multiplicity 1
 C        -0.014875         0.314094        -0.020655
 C         1.480020         0.033284         0.176754
 C         1.946807         0.143709         1.625895
 C         3.467798        -0.006622         1.353992
 O         4.057814         1.258072         1.053355
 C         3.317702         1.866785         0.020607
 C         2.597328         0.683856        -0.710071
 C         3.251217        -0.641488        -0.163998
 O         1.954691        -1.393950        -0.156022
 H        -0.648173        -0.627680         0.285929
 H        -0.306766         1.150762         0.589927
 H        -0.345156         0.567778        -1.105342
 H         1.784115         1.125381         2.172996
 H         1.622392        -0.640609         2.293311
 H         4.119473        -0.469391         2.150987
 H         2.620716         2.514090         0.583995
 H         3.850842         2.382805        -0.786437
 H         2.173657         0.802105        -1.745326
 H         4.086591        -1.297133        -0.582477
