19
Iteration:  2465charge 0 multiplicity 1
 C        -0.002963         0.213171         0.010380
 C         1.460216         0.040831         0.191458
 C         1.933901         0.040299         1.673537
 C         3.486187        -0.088566         1.297309
 O         4.064189         1.200836         1.216850
 C         3.317056         1.923454         0.077527
 C         2.565716         0.803890        -0.669060
 C         3.273392        -0.553430        -0.232767
 O         1.936139        -1.318672        -0.364563
 H        -0.409947         1.007515         0.512593
 H        -0.230548         0.428367        -1.078437
 H        -0.545460        -0.689091         0.400288
 H         1.571037         1.077881         2.111303
 H         1.537421        -0.583345         2.402434
 H         4.027410        -0.831814         1.873428
 H         2.703231         2.659841         0.491641
 H         4.129095         2.321567        -0.453096
 H         2.368948         0.879662        -1.677378
 H         4.148659        -0.882418        -0.794954
