19
Iteration:  1767charge 0 multiplicity 1
 C         0.064300         0.460189         0.014275
 C         1.461790        -0.023892         0.197265
 C         2.012227        -0.148685         1.598443
 C         3.519082        -0.080789         1.250655
 O         3.856288         1.194081         1.245824
 C         3.227364         1.882497         0.122124
 C         2.510255         0.755862        -0.621044
 C         3.350751        -0.539457        -0.328152
 O         2.057196        -1.304861        -0.280683
 H         0.213947         1.513975        -0.010689
 H        -0.246554         0.248959        -0.941198
 H        -0.804130         0.207745         0.763800
 H         1.688076         0.798092         2.227951
 H         1.582088        -0.980991         2.056069
 H         4.234321        -0.640176         1.834322
 H         2.554967         2.642727         0.519284
 H         3.898242         2.410237        -0.511395
 H         2.143089         1.008439        -1.684824
 H         4.076563        -1.051975        -0.888719
