19
Iteration:  3107charge 0 multiplicity 1
 C        -0.027689         0.256353         0.021381
 C         1.434196         0.045556         0.144057
 C         1.956234         0.102247         1.659798
 C         3.426207        -0.128142         1.279187
 O         4.031269         1.179355         1.226254
 C         3.284560         1.873554         0.137970
 C         2.542189         0.768746        -0.652011
 C         3.323058        -0.519795        -0.269476
 O         2.027381        -1.284122        -0.345819
 H        -0.267576         1.268683         0.327178
 H        -0.344491         0.050334        -1.099532
 H        -0.584593        -0.537287         0.580172
 H         1.670233         0.990176         2.302203
 H         1.613087        -0.698439         2.233185
 H         4.037176        -0.866985         1.715793
 H         2.543608         2.539734         0.558240
 H         4.107875         2.303549        -0.479959
 H         2.484535         0.770446        -1.729182
 H         4.243284        -0.864359        -0.739686
