19
Iteration:  2334charge 0 multiplicity 1
 C        -0.039057         0.042252        -0.067904
 C         1.395817         0.058544         0.185053
 C         1.908597         0.205454         1.679373
 C         3.463117        -0.130378         1.287786
 O         4.169847         1.110818         1.131599
 C         3.364202         1.862629         0.184726
 C         2.549820         0.854969        -0.568484
 C         3.186903        -0.515414        -0.242004
 O         1.994021        -1.200271        -0.366962
 H        -0.514917         0.690412         0.643987
 H        -0.420495         0.311969        -1.121327
 H        -0.470205        -1.031011         0.062500
 H         1.840577         1.261321         2.210472
 H         1.534757        -0.612680         2.214896
 H         3.894953        -0.786937         2.072297
 H         2.917464         2.864438         0.556092
 H         4.055487         2.224584        -0.584940
 H         2.236470         1.080545        -1.502322
 H         4.061956        -1.046052        -0.685245
