19
Iteration:  1997
 C        -0.124658         0.007911        -0.068256
 C         1.319519        -0.006672         0.247950
 C         1.964298         0.126404         1.608973
 C         3.455334        -0.115025         1.269159
 O         4.126472         1.135025         1.278854
 C         3.469886         1.900038         0.133490
 C         2.583747         0.907768        -0.609499
 C         3.204821        -0.490548        -0.253107
 O         1.984500        -1.188015        -0.407232
 H        -0.582402         0.796394         0.389080
 H        -0.387196         0.004681        -1.154422
 H        -0.669019        -0.899299         0.472068
 H         2.033732         1.112299         2.132301
 H         1.704924        -0.588651         2.256271
 H         3.999151        -0.841190         2.038111
 H         2.862571         2.756790         0.546637
 H         4.190731         2.412589        -0.461043
 H         2.231120         1.100446        -1.616036
 H         4.073178        -0.902121        -0.887652
