19
Iteration:  4591charge 0 multiplicity 1
 C        -0.119726         0.027133        -0.113040
 C         1.401102         0.025115         0.311156
 C         1.983689         0.205571         1.674212
 C         3.469587        -0.119425         1.183693
 O         4.129330         1.238299         1.155804
 C         3.531990         1.845767         0.011841
 C         2.487184         0.757302        -0.657586
 C         3.218527        -0.491583        -0.219183
 O         1.924975        -1.250787        -0.105338
 H        -0.813335         0.057262         0.699229
 H        -0.263078         0.909423        -0.656071
 H        -0.407507        -0.859145        -0.762932
 H         1.998818         1.341918         1.900269
 H         1.379959        -0.427371         2.351400
 H         3.924603        -0.633591         1.971721
 H         3.109151         2.859158         0.272831
 H         4.369921         2.106138        -0.647127
 H         1.932682         0.904103        -1.650727
 H         3.940520        -0.995619        -0.962276
