19
Iteration:  2389
 C         0.049965         0.314303        -0.088770
 C         1.447899         0.027986         0.211748
 C         2.018159        -0.050852         1.649573
 C         3.512771        -0.143517         1.269274
 O         4.037141         1.203336         1.185111
 C         3.253597         1.911221         0.102552
 C         2.527645         0.753495        -0.567034
 C         3.262836        -0.495989        -0.241853
 O         1.939395        -1.263580        -0.322314
 H        -0.239501         1.314762        -0.309657
 H        -0.186614        -0.311289        -1.027475
 H        -0.596383        -0.130056         0.739339
 H         1.887628         0.972849         2.226365
 H         1.542153        -0.756985         2.275041
 H         4.142006        -0.758779         1.919578
 H         2.455836         2.569051         0.673834
 H         3.957688         2.498045        -0.521289
 H         2.123845         0.811872        -1.504108
 H         4.121744        -0.984754        -0.697009
