19
Iteration:  3368
 C         0.003639         0.329686        -0.110649
 C         1.440210        -0.018385         0.225706
 C         2.011130        -0.035950         1.694853
 C         3.436628        -0.101032         1.276023
 O         4.014445         1.255142         1.095756
 C         3.278985         1.849020         0.026960
 C         2.607098         0.734786        -0.587887
 C         3.265445        -0.595911        -0.137619
 O         1.963858        -1.188271        -0.264807
 H        -0.646208        -0.490395         0.129028
 H        -0.343277         1.306964         0.371842
 H        -0.310506         0.355001        -1.143707
 H         1.792577         0.876284         2.441590
 H         1.764690        -1.043533         2.077513
 H         4.055311        -0.688204         2.010932
 H         2.668631         2.672763         0.451205
 H         4.071719         2.341385        -0.529406
 H         2.337817         0.894537        -1.688676
 H         4.143962        -1.177576        -0.458566
