19
Iteration:  1979charge 0 multiplicity 1
 C        -0.108347         0.136344        -0.070562
 C         1.423406         0.071959         0.123560
 C         1.971557        -0.008472         1.690796
 C         3.472396        -0.119390         1.241848
 O         4.138627         1.189139         1.188356
 C         3.341522         1.905271         0.192014
 C         2.556905         0.822649        -0.546592
 C         3.267893        -0.494840        -0.262735
 O         1.953704        -1.188638        -0.326531
 H        -0.600346         1.170265         0.019725
 H        -0.259696        -0.312793        -1.137306
 H        -0.549406        -0.583187         0.615035
 H         1.541721         0.845968         2.201249
 H         1.401447        -0.969595         2.103278
 H         4.214875        -0.702445         1.765080
 H         2.685967         2.631429         0.702532
 H         4.077909         2.304198        -0.503997
 H         2.489084         0.920069        -1.602236
 H         4.126899        -1.006157        -0.764614
