19
Iteration:  2435charge 0 multiplicity 1
 C        -0.048757         0.400496         0.045611
 C         1.446844         0.092755         0.204889
 C         1.973661        -0.134086         1.614327
 C         3.536138        -0.102363         1.265245
 O         3.912189         1.265148         1.214533
 C         3.274563         1.859897         0.026871
 C         2.603454         0.712917        -0.649780
 C         3.353231        -0.558695        -0.182953
 O         2.004386        -1.285470        -0.304406
 H        -0.282758         1.537645         0.150222
 H        -0.408412         0.182354        -1.053765
 H        -0.772957        -0.100065         0.708605
 H         1.612259         0.565020         2.430032
 H         1.624456        -1.194197         1.921946
 H         4.203138        -0.707277         1.860519
 H         2.505966         2.764994         0.330176
 H         4.134275         2.257002        -0.609526
 H         2.606852         0.666653        -1.749524
 H         4.147781        -0.836221        -0.830941
