19
Iteration:  1054
 C        -0.110621         0.161806        -0.102828
 C         1.410192         0.046512         0.193998
 C         1.908960         0.044892         1.625849
 C         3.442773        -0.140330         1.211729
 O         4.129209         1.165040         1.244704
 C         3.344036         1.807653         0.212800
 C         2.511198         0.840863        -0.542689
 C         3.315795        -0.485644        -0.298963
 O         2.027982        -1.169757        -0.342949
 H        -0.566125         0.962915        -0.686072
 H        -0.432058        -0.768655        -0.730622
 H        -0.773800         0.109622         0.788329
 H         1.856247         0.979296         2.212228
 H         1.570106        -0.945940         2.341765
 H         4.077039        -0.762412         1.972795
 H         2.912825         2.796562         0.493606
 H         4.085934         2.228112        -0.476432
 H         2.357675         1.182917        -1.546288
 H         4.238409        -0.951780        -0.788946
