19
Iteration:  2934
 C        -0.039641         0.322346        -0.110545
 C         1.413821         0.041543         0.203991
 C         2.024308         0.003394         1.697987
 C         3.489569        -0.087123         1.225053
 O         3.984650         1.203803         1.174510
 C         3.198365         1.851213         0.159550
 C         2.594875         0.745131        -0.606331
 C         3.268623        -0.577349        -0.241723
 O         2.057008        -1.293760        -0.265661
 H         0.018045         1.368646         0.086571
 H        -0.166390         0.246723        -1.231465
 H        -0.768265        -0.148027         0.508780
 H         1.923152         0.922258         2.395782
 H         1.587591        -0.793262         2.254816
 H         4.247219        -0.659140         1.742960
 H         2.649681         2.730811         0.528020
 H         3.871400         2.518561        -0.409051
 H         2.392133         0.804083        -1.751519
 H         3.885226        -1.085863        -0.991819
