19
Iteration:  3120
 C        -0.041078         0.159144        -0.010323
 C         1.441319         0.095183         0.187028
 C         1.924211         0.059101         1.605701
 C         3.418260        -0.092998         1.258828
 O         4.058823         1.199323         1.173250
 C         3.375053         1.860279         0.129039
 C         2.629070         0.769640        -0.568077
 C         3.190393        -0.539098        -0.191609
 O         2.048104        -1.280874        -0.380021
 H        -0.415803         1.022430         0.641277
 H        -0.514054         0.353608        -1.041216
 H        -0.487285        -0.730964         0.476644
 H         1.838670         1.075270         2.101588
 H         1.386249        -0.786194         2.155725
 H         3.940850        -0.585407         2.049312
 H         2.722237         2.630263         0.547613
 H         3.993447         2.554116        -0.536390
 H         2.313180         1.082913        -1.667316
 H         3.977498        -0.988797        -0.743199
