19
Iteration:  2343
 C        -0.037491         0.044411        -0.068289
 C         1.399180         0.071011         0.136016
 C         1.917883         0.123153         1.622854
 C         3.360372        -0.135250         1.245779
 O         4.283180         1.175901         1.131767
 C         3.374678         1.888934         0.199581
 C         2.502456         0.872098        -0.573128
 C         3.210713        -0.552993        -0.198853
 O         1.965547        -1.220742        -0.305786
 H        -0.486310         0.829529         0.548109
 H        -0.280630         0.239005        -1.096434
 H        -0.376681        -0.990534         0.290465
 H         1.693651         1.139971         2.134957
 H         1.368096        -0.530377         2.299805
 H         3.906311        -0.791995         1.981022
 H         2.769702         2.674157         0.889272
 H         4.014652         2.370753        -0.527184
 H         2.370411         1.131259        -1.657679
 H         4.020650        -1.028588        -0.842558
