19
Iteration:  3206
 C        -0.134308         0.377000        -0.065985
 C         1.432055         0.031853         0.197015
 C         1.948634         0.072367         1.640380
 C         3.541393        -0.086576         1.315053
 O         4.050790         1.251948         1.135477
 C         3.259486         1.845607         0.091345
 C         2.606164         0.728446        -0.638130
 C         3.333653        -0.655292        -0.198052
 O         2.033917        -1.295787        -0.249925
 H        -0.787312        -0.195785         0.622135
 H        -0.230104         1.522959        -0.184072
 H        -0.275585        -0.173310        -0.981091
 H         1.497014         0.894389         2.283075
 H         1.627255        -0.875810         1.977625
 H         3.975158        -0.670223         2.123688
 H         2.487045         2.433463         0.646083
 H         3.787705         2.518673        -0.655528
 H         2.324299         0.704045        -1.741370
 H         4.108240        -1.155460        -0.750211
