19
Iteration:  1487charge 0 multiplicity 1
 C        -0.143868         0.144279        -0.094651
 C         1.410568         0.076509         0.171166
 C         1.996275         0.030772         1.642522
 C         3.473043        -0.077133         1.289598
 O         4.138280         1.172474         1.174905
 C         3.346332         1.931427         0.199242
 C         2.600064         0.758032        -0.569290
 C         3.288814        -0.544048        -0.271228
 O         1.923963        -1.191527        -0.354370
 H        -0.374086         1.090342        -0.554920
 H        -0.266598        -0.648870        -0.897181
 H        -0.738122        -0.100472         0.836706
 H         1.880809         0.873893         2.433956
 H         1.598272        -0.827304         2.208405
 H         4.057448        -0.723551         1.966938
 H         2.586261         2.557381         0.797086
 H         3.977797         2.533246        -0.376837
 H         2.283092         0.848798        -1.542397
 H         4.054261        -1.070619        -0.806045
