19
Iteration:  2252charge 0 multiplicity 1
 C        -0.006298         0.438160        -0.030423
 C         1.479510        -0.024332         0.122310
 C         2.014631        -0.030969         1.715947
 C         3.538233        -0.110539         1.261538
 O         3.911449         1.215137         1.188600
 C         3.216640         1.912179         0.124855
 C         2.554570         0.744822        -0.612216
 C         3.314458        -0.632677        -0.238975
 O         2.024713        -1.313068        -0.332660
 H        -0.072032         1.468239         0.377551
 H        -0.265132         0.466709        -1.070035
 H        -0.679818        -0.118501         0.517371
 H         1.828420         0.889740         2.133578
 H         1.651488        -0.904161         2.362976
 H         4.122599        -0.572851         2.023882
 H         2.458408         2.592867         0.641463
 H         3.902841         2.425872        -0.573372
 H         2.337551         0.829597        -1.777952
 H         4.101715        -1.016200        -0.841918
