19
Iteration:  2857charge 0 multiplicity 1
 C         0.000048         0.100199        -0.123282
 C         1.385270         0.065046         0.230128
 C         1.956097         0.102609         1.691829
 C         3.479202        -0.136777         1.205848
 O         4.042616         1.181093         1.200060
 C         3.412693         1.881962         0.068118
 C         2.519198         0.881596        -0.516423
 C         3.252885        -0.538272        -0.271475
 O         1.946730        -1.242867        -0.254940
 H        -0.498340         0.697774         0.592503
 H        -0.361789         0.520742        -1.124236
 H        -0.307711        -0.934174         0.076525
 H         1.679680         1.130350         2.131929
 H         1.569812        -0.754986         2.177055
 H         4.201223        -0.750815         1.810226
 H         2.959487         2.895504         0.462692
 H         4.205825         2.051722        -0.709422
 H         2.251317         1.018487        -1.588306
 H         4.109648        -1.098840        -0.756365
