19
Iteration:  4548
 C         0.002492         0.359555        -0.026934
 C         1.469069         0.009124         0.218058
 C         1.917787         0.009626         1.635235
 C         3.525367        -0.001706         1.396309
 O         4.057106         1.234806         1.005580
 C         3.218580         1.886293        -0.074839
 C         2.641418         0.661060        -0.643719
 C         3.293489        -0.626370        -0.129075
 O         1.924464        -1.305546        -0.169781
 H        -0.428986         0.754119         0.824181
 H        -0.124766         1.112608        -0.768240
 H        -0.570130        -0.533478        -0.383172
 H         1.582214         0.988865         2.132525
 H         1.714203        -0.887646         2.230233
 H         4.292435        -0.428028         1.969338
 H         2.442911         2.473477         0.465385
 H         3.801022         2.696039        -0.534074
 H         2.350158         0.811765        -1.733461
 H         4.125088        -1.369215        -0.470765
