19
Iteration:  3102
 C        -0.045376         0.290427         0.012719
 C         1.477245        -0.008099         0.157940
 C         1.955937         0.067570         1.629476
 C         3.464924        -0.119015         1.283822
 O         4.022221         1.156047         1.235825
 C         3.245996         1.900538         0.151216
 C         2.529606         0.747386        -0.696576
 C         3.371712        -0.489526        -0.264542
 O         2.000151        -1.263515        -0.315640
 H        -0.318827         1.373479         0.089182
 H        -0.335601        -0.014573        -0.936737
 H        -0.725109        -0.398753         0.525942
 H         1.823401         0.936438         2.247617
 H         1.549451        -0.767410         2.325728
 H         4.115581        -0.879634         1.857744
 H         2.579734         2.718250         0.555584
 H         4.037369         2.269440        -0.478306
 H         2.391945         0.891509        -1.806714
 H         4.230722        -1.019919        -0.784294
