19
Iteration:   772charge 0 multiplicity 1
 C        -0.037123         0.439995         0.019813
 C         1.426647         0.019530         0.146983
 C         2.075789        -0.238119         1.597742
 C         3.520306        -0.217523         1.202038
 O         3.938005         1.162624         1.342296
 C         3.154432         1.937751         0.335145
 C         2.543378         0.855998        -0.517876
 C         3.332862        -0.451421        -0.351251
 O         2.076002        -1.287142        -0.568064
 H        -0.125917         1.151547        -0.791933
 H        -0.660742        -0.384346        -0.378395
 H        -0.365402         0.875734         0.948143
 H         1.799319         0.579655         2.443955
 H         1.641601        -1.206732         1.853270
 H         4.236447        -0.691545         1.847113
 H         2.350647         2.589413         0.757230
 H         3.814843         2.684472        -0.188596
 H         2.461004         1.197079        -1.497342
 H         4.136039        -0.902612        -0.970084
