19
Iteration:  2321charge 0 multiplicity 1
 C        -0.155205         0.090093        -0.064703
 C         1.405649         0.062762         0.255901
 C         1.998364         0.107164         1.663037
 C         3.417854        -0.101447         1.300093
 O         4.054963         1.127773         1.177813
 C         3.458135         1.861715         0.069199
 C         2.557471         0.804263        -0.549875
 C         3.297426        -0.491778        -0.243641
 O         1.966756        -1.189400        -0.363166
 H        -0.830429         0.630284         0.637569
 H        -0.254518         0.497882        -1.035382
 H        -0.419224        -1.016148        -0.051689
 H         1.784421         1.159945         2.066456
 H         1.512496        -0.491997         2.450556
 H         4.188932        -0.753997         1.775148
 H         2.770039         2.647145         0.631956
 H         4.281421         2.280906        -0.501399
 H         2.393307         0.914048        -1.653995
 H         4.175059        -0.813542        -0.906614
