19
Iteration:  1180
 C        -0.100963        -0.029726        -0.104689
 C         1.382510         0.137748         0.222961
 C         1.875405         0.007637         1.651428
 C         3.491532        -0.140561         1.302401
 O         4.142079         1.215899         1.157181
 C         3.544451         1.939535         0.124030
 C         2.591898         0.859862        -0.565952
 C         3.185529        -0.537371        -0.241193
 O         1.919807        -1.149650        -0.295957
 H        -0.852393         0.488289         0.587114
 H        -0.439854         0.366322        -1.148068
 H        -0.424175        -1.116128        -0.109796
 H         1.775040         0.963203         2.205417
 H         1.429250        -0.755402         2.157771
 H         4.032742        -0.715912         2.044430
 H         3.005984         2.668982         0.650664
 H         4.295249         2.344820        -0.560005
 H         2.414740         1.040401        -1.684750
 H         3.838545        -1.120109        -0.980675
