19
Iteration:  3239charge 0 multiplicity 1
 C         0.050333         0.344787        -0.004329
 C         1.493468        -0.063543         0.158999
 C         1.940351         0.105320         1.645232
 C         3.456941        -0.086380         1.373441
 O         3.976629         1.255651         1.174635
 C         3.284637         1.820632         0.004177
 C         2.590144         0.759039        -0.716278
 C         3.283541        -0.579086        -0.204177
 O         1.971909        -1.326448        -0.255780
 H        -0.637852        -0.540460         0.227060
 H        -0.409595         1.166774         0.712777
 H         0.018706         0.695365        -1.036782
 H         1.606969         0.990697         2.304204
 H         1.635124        -0.800334         2.152640
 H         4.095915        -0.646935         2.103431
 H         2.603386         2.581949         0.482179
 H         4.061287         2.483305        -0.557890
 H         2.290827         0.776192        -1.859087
 H         4.071785        -1.125131        -0.709218
