19
Iteration:  4387charge 0 multiplicity 1
 C         0.000133         0.273244        -0.081232
 C         1.411178         0.089559         0.244182
 C         1.967669        -0.017251         1.709831
 C         3.494793        -0.115067         1.307570
 O         4.076415         1.308577         1.065164
 C         3.298161         1.885542        -0.002157
 C         2.574080         0.742699        -0.574714
 C         3.250992        -0.647300        -0.163340
 O         1.931284        -1.263117        -0.253156
 H        -0.033975         0.249888        -1.154962
 H        -0.629392        -0.586875         0.403506
 H        -0.295483         1.235300         0.375064
 H         1.746964         0.556709         2.552048
 H         1.674026        -1.055335         1.910154
 H         4.312449        -0.487502         1.866901
 H         2.492768         2.550426         0.380074
 H         3.933237         2.554117        -0.610749
 H         2.323609         0.891593        -1.678874
 H         4.093554        -1.107657        -0.709374
