19
Iteration:   944
 C        -0.046243         0.455916        -0.188975
 C         1.468515         0.006556         0.151650
 C         2.098125        -0.222580         1.679261
 C         3.570919        -0.195322         1.232300
 O         3.985576         1.225879         1.192393
 C         3.139199         1.927106         0.274297
 C         2.549845         0.807424        -0.556020
 C         3.320762        -0.521487        -0.222821
 O         1.961795        -1.231997        -0.359270
 H        -0.709902        -0.187464        -0.844114
 H        -0.665097         0.382688         0.794612
 H         0.128083         1.439233        -0.497277
 H         1.874082         0.524953         2.357868
 H         1.728458        -1.265767         2.018547
 H         4.281576        -0.819612         1.705151
 H         2.276841         2.417073         0.692677
 H         3.740719         2.642541        -0.255127
 H         2.393458         0.938537        -1.609921
 H         4.286499        -1.003158        -0.524314
