19
Iteration:  3647
 C        -0.152150         0.090282        -0.021373
 C         1.397413         0.004537         0.203694
 C         2.021039         0.099144         1.601851
 C         3.403382        -0.171915         1.237185
 O         4.052269         1.109557         1.276502
 C         3.364698         1.894734         0.223593
 C         2.629302         0.862363        -0.625370
 C         3.228837        -0.442994        -0.297275
 O         2.033776        -1.185405        -0.411030
 H        -0.410012        -0.056539        -1.033152
 H        -0.665893        -0.592950         0.627172
 H        -0.388166         1.123764         0.209517
 H         1.855468         1.023500         2.117712
 H         1.530374        -0.725269         2.247575
 H         4.108594        -0.775583         1.914531
 H         2.775561         2.708837         0.664123
 H         4.284533         2.337886        -0.245473
 H         2.361672         1.011054        -1.709536
 H         4.167075        -0.814701        -0.903185
