19
Iteration:  2596
 C        -0.027913         0.435171         0.035072
 C         1.457249        -0.005719         0.238894
 C         2.006987        -0.158111         1.654404
 C         3.457906        -0.058738         1.198477
 O         3.880667         1.281739         1.176299
 C         3.260079         1.892146        -0.005452
 C         2.661776         0.702882        -0.564064
 C         3.336460        -0.606090        -0.156131
 O         1.999846        -1.258829        -0.375837
 H        -0.113947         1.487553        -0.069253
 H        -0.406155        -0.009916        -0.956186
 H        -0.589536         0.036600         0.892373
 H         2.019981         0.743422         2.381534
 H         1.688877        -1.051758         2.111675
 H         4.102543        -0.655535         1.870102
 H         2.426437         2.611175         0.494486
 H         3.982973         2.438983        -0.615656
 H         2.432703         0.763901        -1.614366
 H         4.239354        -1.088049        -0.513633
