19
Iteration:  4655
 C        -0.010449         0.320419        -0.022410
 C         1.476086         0.033538         0.177362
 C         1.949915         0.142383         1.625783
 C         3.469655        -0.011727         1.360661
 O         4.052091         1.266061         1.053792
 C         3.321378         1.861154         0.023305
 C         2.584357         0.680333        -0.711597
 C         3.259621        -0.647755        -0.174859
 O         1.956170        -1.395196        -0.149802
 H        -0.629016        -0.607712         0.254855
 H        -0.302897         1.152656         0.590232
 H        -0.319181         0.590351        -1.106092
 H         1.801818         1.135189         2.174587
 H         1.608837        -0.651324         2.293491
 H         4.104078        -0.460142         2.121961
 H         2.619455         2.524615         0.584503
 H         3.838179         2.396475        -0.771538
 H         2.155265         0.792585        -1.748369
 H         4.094097        -1.289652        -0.590739
