19
Iteration:  3623
 C        -0.106239         0.076403        -0.119934
 C         1.409028         0.047124         0.188260
 C         1.895799         0.021783         1.630346
 C         3.414273        -0.192904         1.273081
 O         4.243143         1.197523         1.159230
 C         3.395399         1.911523         0.233305
 C         2.508405         0.869824        -0.497744
 C         3.236111        -0.463666        -0.241502
 O         1.976013        -1.202602        -0.374842
 H        -0.207010         0.379019        -1.175188
 H        -0.416611        -0.901066         0.012582
 H        -0.622397         0.848921         0.464435
 H         1.581551         0.917349         2.193747
 H         1.297808        -0.869271         2.141574
 H         4.193332        -0.708094         1.920518
 H         2.989563         2.794738         0.742495
 H         4.110431         2.282988        -0.534431
 H         2.172092         1.160823        -1.491237
 H         4.072724        -1.001535        -0.808187
