19
Iteration:   650charge 0 multiplicity 1
 C        -0.051155         0.304262        -0.095987
 C         1.430855         0.040079         0.149250
 C         2.087326        -0.284296         1.626436
 C         3.492562        -0.188075         1.181020
 O         4.077669         1.134913         1.311233
 C         3.177893         1.925415         0.492580
 C         2.548905         0.935050        -0.495848
 C         3.218231        -0.423151        -0.396647
 O         2.027618        -1.137902        -0.569072
 H        -0.705217        -0.188217         0.710495
 H        -0.336497         1.397440        -0.091657
 H        -0.240550        -0.198369        -0.993876
 H         1.813011         0.431513         2.462064
 H         1.866353        -1.427590         1.860529
 H         4.163818        -0.911661         1.592070
 H         2.495118         2.275435         1.260646
 H         3.818663         2.704517         0.009457
 H         2.248090         1.089676        -1.580008
 H         4.046844        -0.769117        -1.033423
