19
Iteration:  4248
 C        -0.113302         0.137447        -0.138771
 C         1.364957         0.082470         0.326947
 C         1.996039         0.035983         1.696494
 C         3.536431        -0.086200         1.284040
 O         4.097752         1.202464         1.078966
 C         3.411689         1.895304         0.073716
 C         2.552465         0.798908        -0.541127
 C         3.202724        -0.519004        -0.251817
 O         1.972560        -1.276509        -0.242558
 H        -0.751486        -0.736280        -0.046651
 H        -0.653463         0.969526         0.367626
 H        -0.049855         0.355380        -1.166301
 H         1.761412         0.927792         2.300822
 H         1.585927        -0.946321         2.183944
 H         4.243390        -0.710838         1.839001
 H         2.740544         2.701216         0.369763
 H         4.024017         2.412208        -0.642436
 H         2.225075         1.009267        -1.586549
 H         4.046496        -0.874915        -0.784062
