19
Iteration:  2871charge 0 multiplicity 1
 C        -0.099017         0.186351        -0.023024
 C         1.427249         0.068474         0.221780
 C         1.952570         0.026706         1.622806
 C         3.474506        -0.117743         1.279230
 O         4.048686         1.204912         1.228851
 C         3.386415         1.886632         0.041083
 C         2.561189         0.753418        -0.634473
 C         3.235663        -0.491093        -0.214031
 O         2.034449        -1.257644        -0.279448
 H        -0.713578         0.865883         0.766534
 H        -0.131601         0.599672        -1.055768
 H        -0.646490        -0.743097        -0.180140
 H         2.035865         0.928052         2.210996
 H         1.394024        -0.689236         2.236311
 H         4.021774        -0.811366         1.852351
 H         2.725823         2.723809         0.434366
 H         4.180940         2.238734        -0.615256
 H         2.310904         0.845298        -1.803857
 H         3.938937        -0.805798        -0.943752
