19
Iteration:  2069charge 0 multiplicity 1
 C         0.051229         0.351838        -0.105026
 C         1.477386        -0.014945         0.189988
 C         1.984054        -0.042823         1.681000
 C         3.525397        -0.169882         1.285091
 O         4.043238         1.266889         1.187507
 C         3.237741         1.951243         0.088323
 C         2.518674         0.771637        -0.568122
 C         3.257586        -0.595199        -0.230915
 O         1.974495        -1.292856        -0.322196
 H        -0.494729         0.875875         0.855267
 H        -0.072595         1.023266        -0.968808
 H        -0.594758        -0.526545        -0.255216
 H         1.700742         0.898145         2.205161
 H         1.552439        -1.001622         2.283782
 H         4.095053        -0.835471         1.883672
 H         2.427147         2.479702         0.626273
 H         3.868118         2.706092        -0.474377
 H         2.318788         0.924273        -1.693190
 H         4.002177        -1.091175        -0.785634
