19
Iteration:  1651
 C        -0.039575         0.164347        -0.137640
 C         1.416335         0.104499         0.203947
 C         1.930521         0.015625         1.653240
 C         3.493518        -0.137196         1.252495
 O         4.108490         1.162374         1.039608
 C         3.330923         1.898959         0.234125
 C         2.539096         0.826703        -0.567725
 C         3.243448        -0.573262        -0.185310
 O         2.008515        -1.162990        -0.267436
 H        -0.715743         0.813718         0.432028
 H        -0.326128         0.359097        -1.254516
 H        -0.452650        -0.888918        -0.077903
 H         1.622886         0.855790         2.284981
 H         1.605508        -0.835545         2.241988
 H         4.150568        -0.742435         1.886789
 H         2.697592         2.623687         0.749743
 H         3.976536         2.580456        -0.314038
 H         2.297122         0.935347        -1.556029
 H         4.012964        -1.220736        -0.581731
