19
Iteration:   725
 C        -0.128201         0.119912        -0.028040
 C         1.355580         0.130376         0.217397
 C         1.977763        -0.191990         1.545530
 C         3.455630        -0.218891         1.198634
 O         4.017890         1.111815         1.331004
 C         3.409503         1.954908         0.354637
 C         2.556457         0.962678        -0.483528
 C         3.276648        -0.436986        -0.321760
 O         2.041628        -1.097768        -0.585491
 H        -0.191364        -0.634306        -0.923106
 H        -0.525525        -0.635858         0.776598
 H        -0.564772         1.097469        -0.121462
 H         1.746918         0.503108         2.299801
 H         1.659913        -1.241861         1.882382
 H         4.175988        -0.870197         1.652792
 H         2.919576         2.904209         0.837371
 H         4.307032         2.417145        -0.110289
 H         2.207432         1.203845        -1.547183
 H         4.175681        -0.738140        -0.866791
