19
Iteration:  1696
 C        -0.129238         0.093949        -0.055065
 C         1.371031         0.035382         0.196935
 C         1.958887         0.071057         1.591211
 C         3.514853        -0.127912         1.256083
 O         4.091277         1.097958         1.213037
 C         3.411365         1.933904         0.212239
 C         2.527357         0.912748        -0.575634
 C         3.275721        -0.505128        -0.321305
 O         2.004453        -1.253058        -0.302647
 H        -0.544338         1.168303        -0.198835
 H        -0.451126        -0.458470        -1.067207
 H        -0.716957        -0.395218         0.702469
 H         1.931117         1.042426         1.991292
 H         1.309786        -0.543104         2.304193
 H         4.139788        -0.735700         1.956596
 H         2.919081         2.781804         0.659552
 H         4.161713         2.428108        -0.336478
 H         2.180688         1.098601        -1.576614
 H         4.089410        -0.816412        -1.046104
