19
Iteration:  2536charge 0 multiplicity 1
 C        -0.080903         0.179724        -0.127319
 C         1.414547         0.020270         0.207674
 C         2.003123         0.057408         1.692869
 C         3.538263        -0.099901         1.289523
 O         4.120792         1.128866         1.147212
 C         3.291078         1.917645         0.107483
 C         2.517721         0.818074        -0.582551
 C         3.271036        -0.539071        -0.211807
 O         1.953609        -1.218306        -0.288314
 H        -0.752432         1.072686         0.269585
 H        -0.218406         0.159306        -1.206672
 H        -0.600705        -0.709826         0.294385
 H         1.949414         0.956975         2.232209
 H         1.331019        -0.641873         2.333908
 H         4.295952        -0.657140         1.875071
 H         2.703715         2.727106         0.696151
 H         3.971918         2.376142        -0.690387
 H         2.299777         1.049993        -1.697324
 H         4.080874        -1.092076        -0.751608
