19
Iteration:  4152charge 0 multiplicity 1
 C        -0.051904         0.188824        -0.126777
 C         1.419365         0.042937         0.267561
 C         2.036013        -0.073821         1.771244
 C         3.457395        -0.158760         1.252224
 O         4.083024         1.211403         1.046091
 C         3.300389         1.975956         0.145800
 C         2.609968         0.827540        -0.590488
 C         3.266133        -0.571945        -0.194638
 O         1.918592        -1.178839        -0.308546
 H        -0.899958         0.533829         0.560772
 H        -0.127743         1.004101        -0.879400
 H        -0.348554        -0.775203        -0.618624
 H         1.893068         0.639705         2.571820
 H         1.658980        -1.015415         2.086376
 H         4.221998        -0.714944         1.828331
 H         2.592429         2.678933         0.670353
 H         3.981529         2.640994        -0.443615
 H         2.226780         0.908695        -1.573577
 H         4.034937        -1.125357        -0.696965
