19
Iteration:  2911charge 0 multiplicity 1
 C         0.061054         0.387192         0.006569
 C         1.471533         0.055772         0.190294
 C         1.985839        -0.078850         1.557827
 C         3.443750        -0.159866         1.346171
 O         4.051818         1.304970         1.129874
 C         3.182679         1.891251         0.115884
 C         2.570636         0.717887        -0.651735
 C         3.284941        -0.597542        -0.179621
 O         1.960489        -1.314212        -0.318204
 H        -0.203824         1.143831         0.628580
 H        -0.087656         0.620192        -1.098058
 H        -0.425183        -0.536277         0.304377
 H         1.649624         0.863087         2.160550
 H         1.555369        -0.886045         2.111481
 H         4.078454        -0.523205         2.179589
 H         2.492204         2.645803         0.555143
 H         3.762264         2.667280        -0.427784
 H         2.474766         0.675057        -1.735838
 H         4.207781        -1.053411        -0.686445
