19
Iteration:  1794
 C        -0.000352         0.301645        -0.052134
 C         1.412015         0.080216         0.180766
 C         1.997585        -0.045031         1.668822
 C         3.479176        -0.096813         1.220536
 O         4.068859         1.225646         1.172659
 C         3.241969         1.908329         0.187127
 C         2.553638         0.745709        -0.599956
 C         3.288343        -0.572755        -0.198024
 O         2.000677        -1.291355        -0.364300
 H        -0.242064         1.277546         0.459737
 H        -0.298986         0.422477        -1.173226
 H        -0.657021        -0.425492         0.259177
 H         1.846553         0.818273         2.285744
 H         1.447423        -0.877393         2.255704
 H         4.222906        -0.754143         1.712417
 H         2.401600         2.405749         0.776704
 H         3.784715         2.706166        -0.521123
 H         2.264788         0.833821        -1.607085
 H         4.159781        -1.150968        -0.663051
