19
Iteration:  1218charge 0 multiplicity 1
 C        -0.110707         0.200125        -0.068734
 C         1.394520        -0.025692         0.211547
 C         1.961001         0.094723         1.694444
 C         3.422453        -0.151064         1.255226
 O         4.060825         1.123491         1.134208
 C         3.347960         1.882090         0.189067
 C         2.570845         0.862439        -0.619592
 C         3.275956        -0.521897        -0.258093
 O         2.069873        -1.246459        -0.318451
 H        -0.377607         1.229202         0.168283
 H        -0.183523         0.081062        -1.205722
 H        -0.730594        -0.450228         0.527915
 H         1.952741         1.110317         2.074221
 H         1.407077        -0.629793         2.395570
 H         4.172518        -0.672081         1.907527
 H         2.644522         2.594259         0.738616
 H         3.970793         2.588329        -0.396127
 H         2.327509         0.913654        -1.647303
 H         4.090346        -0.831247        -0.856445
