19
Iteration:  2796
 C        -0.012995         0.193617        -0.018816
 C         1.436800        -0.044514         0.227453
 C         1.982439         0.077444         1.568670
 C         3.444859        -0.083854         1.298005
 O         4.082500         1.163127         1.153299
 C         3.288594         1.934795         0.178081
 C         2.604030         0.833593        -0.627936
 C         3.215683        -0.514718        -0.268238
 O         1.995518        -1.306834        -0.309043
 H        -0.007254         1.359418        -0.032311
 H        -0.296935        -0.212344        -0.948731
 H        -0.741897        -0.055687         0.727687
 H         1.559117         0.924901         2.016085
 H         1.618140        -0.697772         2.317145
 H         3.969063        -0.744312         1.946888
 H         2.531580         2.480041         0.657043
 H         3.862658         2.711753        -0.304880
 H         2.509227         0.905979        -1.773636
 H         3.945870        -1.072328        -0.795290
