19
Iteration:  2632charge 0 multiplicity 1
 C         0.032862         0.234649        -0.116144
 C         1.404759        -0.009133         0.213173
 C         1.993174         0.025972         1.626289
 C         3.458029        -0.070200         1.173040
 O         4.066437         1.210652         1.195214
 C         3.303094         1.890814         0.116941
 C         2.526157         0.790205        -0.548323
 C         3.241008        -0.499054        -0.235126
 O         1.980475        -1.308685        -0.216823
 H        -0.357388         1.276988         0.106084
 H        -0.192758        -0.021374        -1.170470
 H        -0.631020        -0.395470         0.439474
 H         1.964722         0.906598         2.289729
 H         1.683959        -0.867469         2.314038
 H         4.084252        -0.775945         1.734492
 H         2.615270         2.749928         0.448130
 H         4.123780         2.373718        -0.508877
 H         2.181372         1.069040        -1.625348
 H         3.975023        -1.046804        -0.828686
