19
Iteration:   451
 C         0.026956         0.359988         0.154138
 C         1.460133         0.002999         0.118675
 C         2.027284        -0.469563         1.461925
 C         3.536862        -0.281423         1.099346
 O         3.805329         1.109273         1.461259
 C         3.232975         1.957444         0.501101
 C         2.512512         0.965021        -0.458618
 C         3.384612        -0.320690        -0.416666
 O         2.061822        -1.083417        -0.764269
 H        -0.523518        -0.412315         0.766456
 H        -0.046989         1.214807         0.841264
 H        -0.523975         0.566609        -0.827029
 H         1.909159         0.221577         2.316157
 H         1.545345        -1.550897         1.741377
 H         4.232456        -0.947382         1.599954
 H         2.633274         2.706663         1.070827
 H         4.026434         2.549253        -0.095932
 H         2.190928         1.268112        -1.420182
 H         4.209143        -0.532585        -1.068857
