19
Iteration:  4278charge 0 multiplicity 1
 C        -0.022354         0.066649        -0.146832
 C         1.409370         0.033779         0.244125
 C         2.032249         0.204034         1.585416
 C         3.493279        -0.119725         1.233171
 O         4.164326         1.113750         1.134198
 C         3.327471         1.895624         0.126891
 C         2.482791         0.844153        -0.531165
 C         3.183194        -0.504766        -0.214944
 O         1.949460        -1.269124        -0.180220
 H        -0.538076        -0.802958        -0.408278
 H        -0.614584         0.498610         0.749453
 H        -0.389659         0.759805        -0.892652
 H         1.869200         1.224738         1.930663
 H         1.512209        -0.519044         2.333703
 H         4.220124        -0.871922         1.652442
 H         2.669516         2.700177         0.571680
 H         3.963524         2.287408        -0.693209
 H         2.167235         1.054251        -1.667080
 H         4.158762        -0.824888        -0.786773
