19
Iteration:  2889
 C        -0.120325         0.331659        -0.001427
 C         1.431200        -0.029884         0.143570
 C         1.945305         0.012087         1.654749
 C         3.471028        -0.055340         1.250079
 O         4.020426         1.229792         1.159827
 C         3.311585         1.873195         0.085399
 C         2.632834         0.732246        -0.615853
 C         3.316575        -0.603920        -0.224153
 O         2.009489        -1.266753        -0.304122
 H        -0.300027         0.843922         0.851931
 H        -0.445482         0.883083        -0.929207
 H        -0.638240        -0.618399         0.113677
 H         1.457569         0.794271         2.349088
 H         1.731313        -0.925145         2.138247
 H         4.186590        -0.566896         1.951779
 H         2.576365         2.660064         0.470302
 H         3.999198         2.557981        -0.460762
 H         2.496432         0.989116        -1.647602
 H         4.306314        -1.088356        -0.436347
