19
Iteration:  1135
 C        -0.000974         0.336908        -0.048037
 C         1.431072        -0.028407         0.154813
 C         1.929764        -0.010244         1.592816
 C         3.451814        -0.116987         1.237806
 O         4.010433         1.243764         1.210020
 C         3.300723         1.945814         0.140643
 C         2.605350         0.761915        -0.493445
 C         3.268395        -0.619717        -0.268337
 O         2.041197        -1.301772        -0.321202
 H        -0.258620         1.015154         0.832211
 H        -0.330065         0.811551        -0.954641
 H        -0.788071        -0.570983         0.104801
 H         1.727863         0.991919         2.120163
 H         1.515451        -0.811937         2.134244
 H         4.183957        -0.563691         1.816467
 H         2.624564         2.699642         0.476054
 H         4.067275         2.257533        -0.533371
 H         2.214128         0.914199        -1.558708
 H         4.093364        -0.989772        -0.846490
