19
Iteration:   805charge 0 multiplicity 1
 C         0.025919         0.340184        -0.042882
 C         1.418951        -0.020859         0.190524
 C         2.004158        -0.181533         1.517988
 C         3.516207        -0.184764         1.195074
 O         4.045310         1.139908         1.216731
 C         3.119356         1.913408         0.367165
 C         2.554176         0.874836        -0.483570
 C         3.349635        -0.446251        -0.324189
 O         1.982814        -1.172985        -0.449298
 H         0.144928         1.387349        -0.119676
 H        -0.151785        -0.165275        -0.984540
 H        -0.756534        -0.028974         0.633932
 H         1.752052         0.548343         2.426461
 H         1.619159        -1.142983         1.791821
 H         4.177454        -0.786843         1.859696
 H         2.224103         2.288497         0.971939
 H         3.789501         2.752208         0.016398
 H         2.413924         1.182169        -1.456956
 H         4.183275        -0.983312        -0.859028
