19
Iteration:   226charge 0 multiplicity 1
 C        -0.087873         0.097621         0.000141
 C         1.382545         0.091853         0.126313
 C         2.080055        -0.405191         1.422829
 C         3.507435        -0.312901         1.017211
 O         4.106972         0.896567         1.432813
 C         3.214158         1.898125         0.878477
 C         2.441745         1.162601        -0.308016
 C         3.293234        -0.203083        -0.506203
 O         2.064138        -0.925767        -0.845266
 H        -0.654075        -0.743562         0.569116
 H        -0.606323         1.045994         0.152496
 H        -0.291859        -0.122030        -0.998847
 H         1.863627         0.318262         2.306067
 H         1.807769        -1.381713         1.768319
 H         4.202628        -0.999712         1.452374
 H         2.558860         2.377887         1.655251
 H         3.724028         2.665772         0.423270
 H         2.407417         1.613656        -1.401238
 H         3.986398        -0.190096        -1.301409
