19
Iteration:   140
 C        -0.044588         0.307698         0.162334
 C         1.511641         0.031174         0.124884
 C         2.149842        -0.589657         1.374261
 C         3.552609        -0.387048         0.948634
 O         3.909068         0.945950         1.529350
 C         3.067032         1.915076         0.850450
 C         2.468107         1.106273        -0.300191
 C         3.265771        -0.151075        -0.518095
 O         2.131544        -0.929162        -0.953751
 H        -0.069205         1.417452        -0.284800
 H        -0.354016        -0.451375        -0.561950
 H        -0.401166         0.222105         1.151793
 H         1.778605        -0.056253         2.409797
 H         1.893018        -1.627570         1.350388
 H         4.271454        -1.167386         1.065885
 H         2.344648         2.371567         1.513609
 H         3.732988         2.716342         0.378537
 H         2.094834         1.670262        -1.213385
 H         4.121040        -0.089769        -1.132143
