19
Iteration:   915charge 0 multiplicity 1
 C         0.056356         0.303613        -0.032649
 C         1.483727         0.076614         0.154636
 C         1.950283        -0.099359         1.615013
 C         3.452106        -0.168530         1.225445
 O         4.034238         1.193815         1.271712
 C         3.210649         1.910092         0.307252
 C         2.535531         0.845733        -0.512949
 C         3.279767        -0.514921        -0.382711
 O         2.030208        -1.297736        -0.435103
 H        -0.492040        -0.633006        -0.099281
 H        -0.430207         0.826782         0.820594
 H        -0.150324         0.973299        -1.001450
 H         1.640547         0.809211         2.239169
 H         1.486756        -0.951102         1.966337
 H         4.041444        -0.956341         1.876412
 H         2.515230         2.725045         0.678731
 H         3.862921         2.519464        -0.376471
 H         2.337733         1.045465        -1.555701
 H         4.245576        -0.876860        -0.817346
