19
Iteration:  3885charge 0 multiplicity 1
 C         0.022427         0.363343        -0.011671
 C         1.435131        -0.005194         0.205293
 C         1.938693         0.031443         1.579003
 C         3.497757        -0.083573         1.193705
 O         4.035181         1.194178         1.234046
 C         3.207211         1.872484         0.196579
 C         2.537346         0.677321        -0.623516
 C         3.298135        -0.584515        -0.260936
 O         2.036745        -1.254586        -0.341041
 H        -0.243913         1.141429         0.738644
 H        -0.285112         0.831453        -1.032313
 H        -0.610918        -0.581778         0.266713
 H         1.826643         0.891472         2.102875
 H         1.761288        -0.780021         2.341762
 H         4.188532        -0.587786         1.857831
 H         2.388359         2.497682         0.633858
 H         3.791662         2.592236        -0.354072
 H         2.444261         0.755078        -1.692278
 H         4.056052        -0.992184        -0.888281
