19
Iteration:  4694charge 0 multiplicity 1
 C         0.029958         0.468213        -0.152817
 C         1.431269         0.024841         0.258336
 C         2.096737        -0.006032         1.788835
 C         3.499578        -0.052467         1.318724
 O         3.937422         1.329735         1.010567
 C         3.280389         1.885405        -0.092760
 C         2.483343         0.641579        -0.666155
 C         3.292640        -0.685291        -0.121287
 O         1.962030        -1.383503        -0.109111
 H        -0.563763        -0.417485        -0.446478
 H        -0.527394         0.975343         0.634916
 H         0.087611         1.076225        -1.018382
 H         1.886724         0.853339         2.396246
 H         1.616202        -0.857722         2.279638
 H         4.353080        -0.473602         2.008261
 H         2.531614         2.611820         0.273219
 H         4.147343         2.363164        -0.646436
 H         2.252382         0.693276        -1.727000
 H         4.159126        -1.221039        -0.561861
