19
Iteration:  1766
 C         0.059813         0.457543         0.015034
 C         1.470008        -0.020696         0.197984
 C         2.008354        -0.151650         1.606288
 C         3.516869        -0.076804         1.240386
 O         3.856900         1.202936         1.251961
 C         3.236936         1.880718         0.120536
 C         2.504907         0.749522        -0.621145
 C         3.346444        -0.539354        -0.320532
 O         2.058156        -1.307198        -0.287969
 H         0.221995         1.550328        -0.032499
 H        -0.251201         0.250164        -0.966077
 H        -0.787606         0.224518         0.796660
 H         1.722000         0.778407         2.217300
 H         1.568397        -1.014288         2.044792
 H         4.235483        -0.633407         1.806550
 H         2.567546         2.634631         0.503461
 H         3.878323         2.414289        -0.472065
 H         2.117862         0.998663        -1.706270
 H         4.071888        -1.072919        -0.868408
