19
Iteration:  2191charge 0 multiplicity 1
 C        -0.066374         0.063187        -0.128830
 C         1.370212         0.063778         0.245398
 C         1.902339         0.101311         1.676607
 C         3.463338        -0.126101         1.221576
 O         4.225249         1.132942         1.220379
 C         3.364213         1.897329         0.155040
 C         2.512039         0.856373        -0.540042
 C         3.242826        -0.511058        -0.226183
 O         1.952056        -1.183071        -0.374364
 H        -0.456927         1.022710        -0.682620
 H        -0.145188        -0.762535        -0.852567
 H        -0.879219        -0.124709         0.696860
 H         1.757643         1.144538         2.179458
 H         1.686827        -0.765433         2.344470
 H         4.111275        -0.787770         1.829891
 H         2.851565         2.552649         0.817355
 H         4.020466         2.379554        -0.598498
 H         2.387098         0.933504        -1.613105
 H         4.075469        -0.864056        -0.891424
