19
Iteration:  2710
 C        -0.113432         0.182671        -0.026571
 C         1.408718         0.039809         0.210366
 C         2.016576         0.081719         1.663557
 C         3.473042        -0.098691         1.219070
 O         4.002453         1.220539         1.245316
 C         3.382198         1.852253         0.069142
 C         2.544839         0.747251        -0.617805
 C         3.312193        -0.480546        -0.214144
 O         1.989132        -1.253576        -0.334704
 H        -0.544610         1.032521         0.630115
 H        -0.377959         0.337941        -1.055882
 H        -0.734495        -0.695405         0.170694
 H         1.927895         1.029932         2.159196
 H         1.527786        -0.861726         2.224237
 H         4.078396        -0.849384         1.679558
 H         2.806340         2.783246         0.580373
 H         4.244996         2.235325        -0.612050
 H         2.463801         0.719438        -1.747767
 H         4.158149        -1.032205        -0.632989
