19
Iteration:   758charge 0 multiplicity 1
 C        -0.017950         0.359124         0.001339
 C         1.449645        -0.027811         0.164775
 C         1.973159        -0.268764         1.521385
 C         3.516482        -0.189166         1.176701
 O         3.918823         1.188308         1.364395
 C         3.248833         1.906047         0.332627
 C         2.549619         0.861914        -0.528318
 C         3.329236        -0.455201        -0.353080
 O         2.056916        -1.144636        -0.507872
 H        -0.058421         0.922458        -1.031828
 H        -0.722490        -0.572870         0.268277
 H        -0.284239         0.969679         0.851775
 H         1.774684         0.506049         2.185409
 H         1.692699        -1.218737         2.069526
 H         4.168990        -0.914720         1.589356
 H         2.569483         2.673993         0.910006
 H         4.055780         2.442234        -0.207607
 H         2.107816         1.010754        -1.564220
 H         4.200917        -0.688503        -0.957459
