19
Iteration:  3057charge 0 multiplicity 1
 C        -0.002930         0.304278        -0.163439
 C         1.411669         0.031214         0.253552
 C         2.047683        -0.160688         1.680714
 C         3.515545        -0.074583         1.342794
 O         4.055791         1.200719         1.145653
 C         3.218281         1.891966         0.088117
 C         2.539627         0.805435        -0.603563
 C         3.298555        -0.518443        -0.213782
 O         1.957191        -1.229546        -0.318366
 H         0.160808         1.300435        -0.644503
 H        -0.403366        -0.434017        -0.766920
 H        -0.674591         0.371094         0.667742
 H         1.716776         0.647666         2.327511
 H         1.607457        -1.039499         2.272192
 H         4.163428        -0.630496         2.060708
 H         2.438504         2.429590         0.659676
 H         3.931705         2.527427        -0.463128
 H         2.049029         0.932659        -1.660250
 H         4.169697        -0.932355        -0.697467
