19
Iteration:  3383charge 0 multiplicity 1
 C        -0.048917         0.308886        -0.112787
 C         1.399583         0.078340         0.273939
 C         1.966422        -0.085588         1.718713
 C         3.519350        -0.043802         1.325331
 O         4.023046         1.272290         1.201826
 C         3.372165         1.856024         0.013889
 C         2.570558         0.701386        -0.628361
 C         3.294304        -0.541458        -0.217782
 O         1.937244        -1.291714        -0.300881
 H        -0.844785        -0.130069         0.552520
 H        -0.165591         1.380812        -0.042838
 H         0.010612         0.122651        -1.203074
 H         1.660120         0.652173         2.364930
 H         1.560707        -0.974037         2.199546
 H         4.284152        -0.598244         1.842268
 H         2.591598         2.559152         0.315110
 H         4.086374         2.309997        -0.742705
 H         2.211777         0.728535        -1.686036
 H         4.064229        -0.963485        -0.876899
