19
Iteration:  1393
 C        -0.041901         0.237941        -0.078803
 C         1.399553         0.060311         0.200192
 C         2.013393         0.013197         1.697330
 C         3.446943        -0.104928         1.242013
 O         4.093498         1.218145         1.169443
 C         3.284814         1.886327         0.129569
 C         2.578960         0.766735        -0.616899
 C         3.218735        -0.547922        -0.248478
 O         2.006028        -1.280929        -0.261905
 H        -0.454157         0.869845         0.720979
 H        -0.076595         0.879470        -1.021899
 H        -0.568972        -0.763689        -0.319674
 H         1.813644         0.792327         2.324549
 H         1.414069        -0.802885         2.143993
 H         4.150772        -0.761241         1.705507
 H         2.520893         2.539439         0.510038
 H         4.071749         2.495065        -0.430413
 H         2.376622         0.982745        -1.691477
 H         4.062141        -0.906636        -0.751267
