19
Iteration:  2306
 C        -0.104647         0.150937        -0.061447
 C         1.369513         0.032585         0.211345
 C         1.937761        -0.012061         1.655443
 C         3.489439        -0.176829         1.234610
 O         4.080042         1.296165         1.250407
 C         3.438287         1.907960         0.069470
 C         2.612917         0.809226        -0.615354
 C         3.208189        -0.527893        -0.238005
 O         1.969949        -1.212225        -0.291886
 H        -0.615324         0.661203         0.778782
 H        -0.311371         0.705228        -0.983738
 H        -0.558271        -0.795286        -0.113842
 H         1.978354         0.857059         2.233236
 H         1.574375        -0.921191         2.265262
 H         4.025739        -0.815192         1.913717
 H         2.876231         2.796802         0.277451
 H         4.212972         2.185732        -0.704767
 H         2.307608         0.907748        -1.755972
 H         3.998872        -1.064551        -0.708517
