19
Iteration:  4423charge 0 multiplicity 1
 C        -0.116919         0.083257         0.010911
 C         1.449279         0.066145         0.185142
 C         1.939160         0.276538         1.576462
 C         3.434583        -0.115318         1.238164
 O         4.164666         1.201917         1.114787
 C         3.354577         1.845995         0.146679
 C         2.526204         0.770154        -0.596215
 C         3.237332        -0.589803        -0.240605
 O         2.035531        -1.318468        -0.229139
 H        -0.360778         0.839735        -0.774565
 H        -0.665995        -0.799023        -0.215733
 H        -0.534222         0.550755         0.855483
 H         1.986256         1.330497         1.932691
 H         1.169557        -0.323818         2.133364
 H         3.904169        -0.794032         1.975856
 H         2.764015         2.643142         0.692818
 H         3.960999         2.338272        -0.600547
 H         2.356668         0.964101        -1.604642
 H         4.040481        -0.873291        -0.804669
