19
Iteration:   263
 C        -0.039733         0.313447         0.103730
 C         1.470951        -0.002734         0.108024
 C         2.133972        -0.574505         1.426299
 C         3.526540        -0.335190         1.060417
 O         3.936949         0.986524         1.432689
 C         3.093336         1.966863         0.735009
 C         2.488297         1.046486        -0.382889
 C         3.286275        -0.196212        -0.447956
 O         2.083753        -0.926390        -0.825787
 H        -0.574669        -0.485524        -0.391077
 H        -0.473236         0.501851         1.110417
 H        -0.011127         1.235246        -0.564776
 H         1.915949        -0.009964         2.374334
 H         1.821887        -1.673256         1.472654
 H         4.256500        -1.130308         1.360201
 H         2.473352         2.480031         1.416543
 H         3.966346         2.625457         0.424387
 H         2.379743         1.337736        -1.341068
 H         4.101890        -0.393731        -1.208402
