19
Iteration:  2380charge 0 multiplicity 1
 C        -0.067015         0.229835        -0.100970
 C         1.440833         0.069499         0.179162
 C         2.025625         0.017005         1.710030
 C         3.448917        -0.118854         1.284536
 O         4.102626         1.195994         1.165503
 C         3.262556         1.853793         0.158185
 C         2.519037         0.816962        -0.607888
 C         3.272823        -0.602754        -0.256705
 O         2.004085        -1.215811        -0.300172
 H        -0.295898         1.323009        -0.147273
 H        -0.375053        -0.256077        -1.128486
 H        -0.775063        -0.207836         0.637685
 H         1.990911         0.973357         2.293010
 H         1.650174        -0.904011         2.175278
 H         4.101433        -0.817715         1.767705
 H         2.530868         2.578414         0.669383
 H         3.791728         2.599518        -0.499044
 H         2.455585         0.986851        -1.665465
 H         4.094275        -1.082864        -0.736108
