19
Iteration:   171
 C        -0.093178         0.069387        -0.027631
 C         1.432493         0.018428         0.132731
 C         2.089116        -0.562593         1.413506
 C         3.532446        -0.392972         1.026070
 O         4.067820         0.922429         1.475093
 C         3.245745         1.955840         0.797470
 C         2.474363         1.186276        -0.241205
 C         3.256465        -0.126500        -0.496418
 O         2.027822        -0.801084        -0.825478
 H        -0.483535         1.088148         0.479639
 H        -0.369360         0.166191        -1.099287
 H        -0.512806        -0.838972         0.363012
 H         1.751424        -0.027320         2.432382
 H         1.753857        -1.606910         1.408619
 H         4.326696        -1.105096         1.187719
 H         2.555428         2.559356         1.435009
 H         3.842956         2.597723         0.245007
 H         2.078909         1.735872        -1.234260
 H         3.987897        -0.215488        -1.265116
