19
Iteration:  2311charge 0 multiplicity 1
 C        -0.121511         0.137482        -0.037340
 C         1.347486         0.046694         0.217704
 C         1.974372        -0.022511         1.684768
 C         3.449230        -0.179018         1.208059
 O         4.084033         1.275138         1.240627
 C         3.458967         1.866180         0.063158
 C         2.602181         0.806665        -0.619351
 C         3.246844        -0.504246        -0.214477
 O         1.971352        -1.194897        -0.310424
 H        -0.748244         0.689885         0.684605
 H        -0.301882         0.591480        -1.032316
 H        -0.524184        -0.924438        -0.241882
 H         1.977437         1.087235         2.066262
 H         1.499882        -0.717068         2.369993
 H         3.941714        -0.803930         1.987086
 H         2.859375         2.830570         0.366780
 H         4.190605         2.324117        -0.608300
 H         2.349650         0.833627        -1.651781
 H         4.086430        -0.945800        -0.842934
