19
Iteration:  1915charge 0 multiplicity 1
 C         0.040455         0.475476         0.009804
 C         1.488127        -0.054563         0.193662
 C         2.008859        -0.092042         1.605603
 C         3.512095        -0.148066         1.276997
 O         3.950351         1.259377         1.213059
 C         3.171332         1.957882         0.169314
 C         2.528616         0.762583        -0.636125
 C         3.279657        -0.599934        -0.278444
 O         2.046458        -1.319502        -0.334943
 H        -0.062372         1.615643         0.060797
 H        -0.195345         0.122023        -1.011424
 H        -0.720824         0.046383         0.566695
 H         1.722334         0.668945         2.308293
 H         1.671769        -1.105431         2.129704
 H         4.190334        -0.752849         1.822431
 H         2.404040         2.560392         0.682970
 H         3.892318         2.469605        -0.573306
 H         2.385535         0.867848        -1.721472
 H         4.119927        -1.087289        -0.796656
