19
Iteration:  1890charge 0 multiplicity 1
 C        -0.065818         0.216767         0.020176
 C         1.463294         0.077872         0.188797
 C         1.966211        -0.097601         1.599434
 C         3.417341        -0.106344         1.304115
 O         4.005689         1.208350         1.157815
 C         3.349866         1.906271         0.107278
 C         2.605038         0.788751        -0.601047
 C         3.281598        -0.543780        -0.253753
 O         2.006097        -1.170468        -0.326722
 H        -0.311284         1.145840         0.518350
 H        -0.439914         0.293555        -1.072223
 H        -0.711309        -0.590023         0.427768
 H         1.774406         0.651908         2.440645
 H         1.600523        -1.075463         2.032762
 H         4.044943        -0.715272         2.030250
 H         2.580700         2.563242         0.491007
 H         4.038322         2.316222        -0.560718
 H         2.485378         0.879642        -1.621936
 H         4.246578        -0.912250        -0.759665
