19
Iteration:   786
 C         0.023910         0.448716        -0.042538
 C         1.484240         0.034449         0.116955
 C         2.019488        -0.272620         1.656724
 C         3.511901        -0.205027         1.258971
 O         3.984991         1.194580         1.243947
 C         3.071794         1.931891         0.404677
 C         2.597975         0.852038        -0.588788
 C         3.269523        -0.518543        -0.343049
 O         2.079300        -1.219844        -0.518407
 H        -0.227419         1.411744        -0.443156
 H        -0.560133        -0.245572        -0.576041
 H        -0.543001         0.529425         0.967085
 H         1.796224         0.519132         2.568220
 H         1.766157        -1.262970         2.007419
 H         4.237991        -1.035177         1.669033
 H         2.294655         2.359758         0.983960
 H         3.715764         2.631684        -0.165395
 H         2.284850         1.028076        -1.635589
 H         4.170936        -0.721549        -0.941009
