19
Iteration:  2006charge 0 multiplicity 1
 C        -0.137140        -0.006318        -0.031967
 C         1.353809        -0.024262         0.228307
 C         1.945692         0.192157         1.632988
 C         3.406187        -0.111643         1.176792
 O         4.062526         1.116850         1.237194
 C         3.537086         1.891712         0.166115
 C         2.585717         0.903851        -0.509720
 C         3.243486        -0.469713        -0.299389
 O         1.992304        -1.193392        -0.387255
 H        -0.665502         0.675342         0.562320
 H        -0.331463         0.083749        -1.039408
 H        -0.408973        -1.044483         0.230554
 H         1.691156         1.220340         1.972282
 H         1.569733        -0.495233         2.333625
 H         4.029547        -0.722834         1.856023
 H         2.961019         2.709044         0.618671
 H         4.391078         2.200072        -0.502049
 H         2.286973         1.077511        -1.590633
 H         4.086870        -0.924767        -0.791975
