19
Iteration:   300
 C         0.021394         0.307906         0.097418
 C         1.433516        -0.061972         0.146853
 C         2.095978        -0.562941         1.441215
 C         3.541316        -0.333749         1.052675
 O         3.881595         0.978901         1.510618
 C         3.200159         1.977996         0.657693
 C         2.502815         1.086798        -0.405725
 C         3.260993        -0.177941        -0.526009
 O         2.090453        -0.974415        -0.773568
 H        -0.388743         0.458092        -0.907194
 H        -0.687418        -0.307356         0.643745
 H        -0.087258         1.284087         0.571071
 H         1.795180        -0.132890         2.340922
 H         1.853394        -1.599989         1.506451
 H         4.323281        -1.006351         1.340672
 H         2.471936         2.628082         1.208232
 H         3.904311         2.624592         0.068725
 H         2.156553         1.479286        -1.416834
 H         4.137404        -0.270472        -1.117930
