19
Iteration:  2237charge 0 multiplicity 1
 C         0.061865         0.370678        -0.046066
 C         1.421692         0.004251         0.222646
 C         2.001713        -0.024295         1.541870
 C         3.448798        -0.099832         1.264980
 O         4.058035         1.271558         1.200056
 C         3.193468         1.860854         0.180245
 C         2.590162         0.715147        -0.610812
 C         3.251604        -0.522618        -0.270002
 O         1.994962        -1.335968        -0.280333
 H        -0.016645         1.425938         0.068929
 H        -0.273527         0.054123        -1.130714
 H        -0.687020         0.004299         0.779707
 H         1.771593         0.919952         2.235230
 H         1.552305        -0.912635         1.911033
 H         4.130529        -0.860706         1.762133
 H         2.370476         2.403308         0.559435
 H         3.934629         2.496860        -0.379705
 H         2.331284         0.958785        -1.567677
 H         4.115235        -1.050554        -0.740198
