19
Iteration:  3906charge 0 multiplicity 1
 C        -0.045460         0.206268        -0.047926
 C         1.485669         0.060971         0.212551
 C         2.015232        -0.033604         1.656642
 C         3.463481        -0.184676         1.324709
 O         4.026938         1.223205         1.133983
 C         3.331657         1.902197         0.115128
 C         2.583968         0.878360        -0.633482
 C         3.257890        -0.536701        -0.206077
 O         1.934266        -1.236369        -0.314121
 H        -0.788407         0.669876         0.625395
 H        -0.352476         0.701028        -1.002963
 H        -0.583017        -0.806233        -0.253604
 H         1.901574         0.668435         2.381774
 H         1.615469        -0.922590         2.183886
 H         4.243744        -0.767748         1.834702
 H         2.656018         2.723471         0.477168
 H         4.066218         2.442855        -0.458950
 H         2.454450         1.173263        -1.651279
 H         4.005070        -1.120952        -0.705417
