19
Iteration:  4721
 C        -0.036055         0.263529         0.006081
 C         1.419474         0.051856         0.210303
 C         1.959578         0.064464         1.642924
 C         3.490876         0.013830         1.350546
 O         4.071296         1.300476         1.073905
 C         3.399430         1.819893        -0.144156
 C         2.528621         0.652734        -0.682758
 C         3.304359        -0.624853        -0.095371
 O         1.902692        -1.289885        -0.159548
 H        -0.466244        -0.691628        -0.389586
 H        -0.570831         0.536661         0.954817
 H        -0.237119         1.078666        -0.799471
 H         1.620398         0.990173         2.199382
 H         1.535597        -0.771886         2.216776
 H         4.168668        -0.527564         1.931571
 H         2.669650         2.448803         0.366189
 H         4.120884         2.366051        -0.765022
 H         2.313162         0.752353        -1.758199
 H         4.173204        -1.185265        -0.429230
