19
Iteration:   126
 C         0.071593         0.348758         0.148345
 C         1.453645        -0.025497         0.085386
 C         2.087851        -0.667690         1.330423
 C         3.582607        -0.385154         0.984271
 O         3.919160         0.921975         1.511603
 C         2.999619         1.916486         0.829440
 C         2.429356         1.125963        -0.289993
 C         3.376308        -0.122812        -0.577372
 O         2.123398        -0.869917        -0.880294
 H        -0.282003         1.192139        -0.495789
 H        -0.743170        -0.374718         0.019715
 H        -0.105494         0.637903         1.217886
 H         1.943360        -0.094204         2.300638
 H         1.730479        -1.733338         1.492550
 H         4.356998        -1.020507         1.433278
 H         2.224359         2.268318         1.567039
 H         3.565062         2.714264         0.524530
 H         2.216761         1.664042        -1.310217
 H         4.110741        -0.303303        -1.385958
