19
Iteration:  4801
 C        -0.063988         0.187549        -0.136050
 C         1.354487         0.059781         0.293475
 C         1.943012         0.184696         1.692025
 C         3.481706        -0.013959         1.377274
 O         4.187891         1.240289         0.965337
 C         3.356312         1.877476        -0.082489
 C         2.561527         0.587299        -0.690565
 C         3.230751        -0.608897        -0.127160
 O         1.935423        -1.246909        -0.045890
 H        -0.099173         0.069742        -1.220633
 H        -0.724694        -0.619556         0.322351
 H        -0.521547         1.107599         0.126992
 H         1.764367         1.158484         2.129395
 H         1.593691        -0.635390         2.420921
 H         4.122967        -0.640461         2.036632
 H         2.878380         2.762880         0.341242
 H         4.002692         2.310905        -0.808813
 H         2.352603         0.626328        -1.762733
 H         4.000494        -1.258151        -0.602958
