19
Iteration:  3079charge 0 multiplicity 1
 C        -0.000558         0.337790        -0.116576
 C         1.440602         0.040076         0.197194
 C         1.990857        -0.062246         1.631265
 C         3.504971        -0.117775         1.224655
 O         4.008590         1.287027         1.171555
 C         3.286353         1.923748         0.178712
 C         2.546564         0.765946        -0.511882
 C         3.218053        -0.609083        -0.254649
 O         2.018299        -1.311044        -0.288295
 H        -0.028007         1.437528        -0.439181
 H        -0.449092        -0.237691        -0.864391
 H        -0.691488         0.111600         0.678524
 H         1.752124         0.650740         2.409257
 H         1.759816        -1.069483         2.219287
 H         4.243700        -0.791533         1.739481
 H         2.415447         2.541623         0.558933
 H         3.904721         2.533483        -0.498201
 H         2.461843         0.899675        -1.675797
 H         4.065212        -0.971161        -0.835737
