19
Iteration:  2576
 C         0.041046         0.390207         0.102461
 C         1.471368        -0.008988         0.126054
 C         1.939527        -0.067736         1.634636
 C         3.499666        -0.145968         1.365968
 O         3.939653         1.308907         1.195989
 C         3.245800         1.892562         0.042342
 C         2.562988         0.728462        -0.669769
 C         3.298898        -0.569808        -0.240784
 O         2.039312        -1.301434        -0.345148
 H        -0.077786         1.494554         0.026529
 H        -0.464742         0.171147        -0.912586
 H        -0.466543        -0.021595         0.947906
 H         1.575464         0.742646         2.375339
 H         1.515120        -1.060919         1.972949
 H         4.216120        -0.710473         2.015105
 H         2.559292         2.719135         0.346212
 H         4.157648         2.248250        -0.465561
 H         2.287371         0.796454        -1.776795
 H         4.029709        -1.062597        -0.867580
