19
Iteration:  4969charge 0 multiplicity 1
 C        -0.111256         0.262572        -0.018226
 C         1.378381         0.001874         0.150563
 C         1.951136         0.180223         1.692395
 C         3.484423        -0.039236         1.297058
 O         4.109743         1.305666         1.021495
 C         3.307567         1.820382        -0.079695
 C         2.572296         0.617671        -0.660296
 C         3.334287        -0.621676        -0.080903
 O         1.982377        -1.310807        -0.108771
 H        -0.550589        -0.577560        -0.490388
 H        -0.567531         0.380684         0.900135
 H        -0.348862         1.178926        -0.626702
 H         1.971646         1.243334         2.083588
 H         1.469241        -0.503015         2.332743
 H         4.084673        -0.629472         2.027127
 H         2.690142         2.590871         0.382854
 H         3.988705         2.203014        -0.876676
 H         2.452658         0.765664        -1.738153
 H         4.042987        -1.172322        -0.600184
