19
Iteration:  2187charge 0 multiplicity 1
 C        -0.055669         0.050624        -0.141176
 C         1.342081         0.052519         0.256986
 C         1.876503         0.115466         1.678505
 C         3.491518        -0.101890         1.238013
 O         4.232985         1.124033         1.237286
 C         3.378267         1.899235         0.157748
 C         2.485821         0.857650        -0.551460
 C         3.252258        -0.512877        -0.271635
 O         1.953448        -1.174727        -0.364882
 H        -0.468060         0.972958        -0.616056
 H        -0.164869        -0.790786        -0.792310
 H        -0.651495        -0.095238         0.701490
 H         1.788496         1.027018         2.118889
 H         1.602383        -0.749720         2.342983
 H         4.063848        -0.775748         1.830827
 H         2.857973         2.657205         0.839509
 H         4.093672         2.293319        -0.523161
 H         2.392174         0.938115        -1.711970
 H         3.962276        -0.929258        -0.943302
