19
Iteration:  1157charge 0 multiplicity 1
 C        -0.081876         0.157975        -0.038922
 C         1.424173         0.045114         0.197463
 C         1.975451         0.044033         1.677729
 C         3.421812        -0.093665         1.263336
 O         4.053503         1.148643         1.247042
 C         3.397412         1.847927         0.059214
 C         2.574190         0.831137        -0.641775
 C         3.288222        -0.446671        -0.206895
 O         1.970234        -1.219091        -0.331060
 H        -0.854878         0.608577         0.645750
 H        -0.347449         0.575647        -1.016822
 H        -0.524441        -0.930765        -0.198333
 H         1.834442         1.007174         2.322530
 H         1.639156        -0.816004         2.178461
 H         3.969411        -0.792947         1.818571
 H         2.903515         2.638353         0.557072
 H         4.175134         2.112415        -0.628398
 H         2.383273         1.061362        -1.750246
 H         4.156690        -0.901757        -0.696222
