19
Iteration:  4913charge 0 multiplicity 1
 C        -0.096479         0.046897        -0.106764
 C         1.337199         0.119570         0.276962
 C         1.983410         0.319179         1.630380
 C         3.479694        -0.020932         1.275443
 O         4.160899         1.159406         1.036285
 C         3.429263         1.847144        -0.107498
 C         2.520254         0.698366        -0.609416
 C         3.186322        -0.600384        -0.133675
 O         1.966505        -1.278291        -0.027558
 H        -0.032449        -0.339124        -1.157925
 H        -0.521577        -0.671907         0.528508
 H        -0.623347         0.998044        -0.091184
 H         1.918039         1.367443         2.053459
 H         1.575210        -0.327417         2.419959
 H         3.980178        -0.720853         2.078194
 H         2.995587         2.768625         0.277771
 H         4.143729         2.177991        -0.864803
 H         2.266982         0.905777        -1.646387
 H         3.890191        -1.113509        -0.827919
