19
Iteration:  1293charge 0 multiplicity 1
 C        -0.003755         0.341880         0.001751
 C         1.451871        -0.035929         0.222262
 C         2.030148        -0.063385         1.636390
 C         3.477296        -0.104561         1.317633
 O         3.901993         1.226418         1.204509
 C         3.295009         1.848351         0.129387
 C         2.552213         0.823948        -0.633629
 C         3.257393        -0.510486        -0.300671
 O         2.036011        -1.294708        -0.334012
 H         0.104606         1.445634        -0.066501
 H        -0.305837         0.032441        -1.096645
 H        -0.656199         0.064231         0.830375
 H         1.746359         0.759148         2.131330
 H         1.674621        -0.960669         2.120070
 H         4.279786        -0.589776         1.949506
 H         2.775461         2.694436         0.484277
 H         4.108342         2.103933        -0.632296
 H         2.232957         1.026040        -1.617799
 H         4.011245        -1.022433        -0.898357
