19
Iteration:  4988
 C         0.022949         0.369900         0.002171
 C         1.552056        -0.025211         0.294316
 C         2.009874         0.123560         1.655509
 C         3.433076         0.034381         1.302203
 O         3.934918         1.348011         1.092856
 C         3.337154         1.835304        -0.133289
 C         2.573545         0.628375        -0.697553
 C         3.218228        -0.690648        -0.174979
 O         1.952340        -1.396274        -0.108261
 H        -0.496439        -0.505297        -0.554194
 H        -0.538111         0.703308         0.885592
 H         0.153883         1.243968        -0.686942
 H         1.705641         1.037647         2.210628
 H         1.711521        -0.819215         2.183609
 H         4.218685        -0.518585         1.974841
 H         2.681293         2.721577         0.063786
 H         4.087358         2.260958        -0.764903
 H         2.168582         0.573129        -1.694445
 H         4.051207        -1.174553        -0.738665
