19
Iteration:    50
 C        -0.080858        -0.062258        -0.075015
 C         1.402077         0.090921         0.152278
 C         2.043906        -0.487543         1.406717
 C         3.537552        -0.423294         0.962980
 O         4.124362         0.766306         1.516335
 C         3.276222         1.939703         0.940943
 C         2.377137         1.294508        -0.182770
 C         3.267055        -0.033062        -0.527692
 O         2.044615        -0.738407        -0.953508
 H        -0.490300        -1.118290         0.171562
 H        -0.703832         0.707293         0.434648
 H        -0.291210         0.075002        -1.166306
 H         1.842038         0.103227         2.375372
 H         1.630455        -1.574271         1.499326
 H         4.253393        -1.260832         1.161858
 H         2.804633         2.398358         1.818978
 H         4.018356         2.572741         0.448255
 H         1.958024         1.965548        -1.008267
 H         4.108557        -0.070917        -1.274002
