19
Iteration:  2743
 C         0.028963         0.353102        -0.069857
 C         1.468234        -0.025079         0.228352
 C         1.960013        -0.184962         1.753690
 C         3.410478        -0.038403         1.259988
 O         3.982870         1.307068         1.160779
 C         3.335554         1.931982         0.044652
 C         2.568000         0.745390        -0.596029
 C         3.292059        -0.526093        -0.270672
 O         1.976842        -1.307013        -0.282439
 H        -0.044771         1.456711         0.162053
 H        -0.185118         0.324699        -1.078670
 H        -0.627195        -0.179194         0.618044
 H         1.698954         0.535282         2.526445
 H         1.567275        -1.263249         2.015865
 H         4.184355        -0.657667         1.633244
 H         2.532128         2.720466         0.428589
 H         4.066783         2.454633        -0.677880
 H         2.325822         0.794557        -1.680299
 H         4.071271        -1.195249        -0.593839
