19
Iteration:  2660charge 0 multiplicity 1
 C        -0.133930         0.083555        -0.117152
 C         1.349486         0.057994         0.170237
 C         1.952578         0.126576         1.686029
 C         3.460259        -0.068810         1.331956
 O         4.241200         1.121791         1.082379
 C         3.326936         1.875375         0.149958
 C         2.564421         0.818127        -0.550621
 C         3.229732        -0.493568        -0.179466
 O         1.994091        -1.222144        -0.333689
 H        -0.624902         0.834182         0.431110
 H        -0.352916         0.063741        -1.221965
 H        -0.613469        -0.916064         0.171905
 H         2.072208         1.112822         2.200817
 H         1.534027        -0.566066         2.322309
 H         4.059728        -0.673416         2.041683
 H         2.579395         2.501904         0.587176
 H         3.973765         2.491526        -0.398449
 H         2.400465         1.026352        -1.560973
 H         3.926316        -0.997887        -0.840066
