19
Iteration:  2651charge 0 multiplicity 1
 C        -0.166681         0.096108        -0.129357
 C         1.383389         0.040933         0.237477
 C         1.962300         0.105980         1.698468
 C         3.531834        -0.121720         1.331697
 O         4.140088         1.152268         1.081722
 C         3.345013         1.905947         0.143701
 C         2.539120         0.816242        -0.568796
 C         3.256662        -0.560130        -0.275893
 O         2.024784        -1.212491        -0.290096
 H        -0.642429         1.008428         0.173414
 H        -0.270294         0.258394        -1.271143
 H        -0.830828        -0.661003         0.261340
 H         1.808160         1.142076         2.202947
 H         1.382224        -0.510838         2.354892
 H         4.118026        -0.736183         2.067610
 H         2.796552         2.641172         0.894826
 H         3.989325         2.519667        -0.476760
 H         2.384452         0.894659        -1.676268
 H         4.119946        -0.935329        -0.839668
