19
Iteration:  1746charge 0 multiplicity 1
 C         0.018400         0.444894        -0.008808
 C         1.400380         0.016095         0.206045
 C         2.049601        -0.198016         1.675474
 C         3.472418        -0.201022         1.283064
 O         3.907106         1.354277         1.260697
 C         3.257964         1.931360         0.070699
 C         2.648737         0.747107        -0.579430
 C         3.275613        -0.570951        -0.275755
 O         2.002069        -1.305103        -0.412333
 H        -0.079118         1.448655        -0.167808
 H        -0.479992        -0.093635        -0.707729
 H        -0.620580         0.139905         0.908706
 H         1.685807         0.534474         2.553719
 H         1.788465        -1.125479         2.063823
 H         4.199003        -0.750097         1.861913
 H         2.550244         2.781576         0.290155
 H         4.033397         2.328209        -0.697402
 H         2.493974         0.857971        -1.689982
 H         4.107789        -0.879879        -0.838273
