19
Iteration:   728
 C        -0.122813         0.123198        -0.026969
 C         1.389436         0.135397         0.221203
 C         1.972862        -0.210486         1.551658
 C         3.463001        -0.202087         1.203875
 O         3.991264         1.108313         1.333342
 C         3.409531         1.954649         0.337124
 C         2.543789         0.990470        -0.506532
 C         3.284373        -0.451031        -0.317284
 O         2.035329        -1.126701        -0.594384
 H        -0.145231        -0.452627        -0.942399
 H        -0.498868        -0.546834         0.742932
 H        -0.546063         1.085599         0.012359
 H         1.739176         0.526242         2.441677
 H         1.661500        -1.236890         1.888890
 H         4.116737        -0.876256         1.684945
 H         2.983800         2.798905         0.885932
 H         4.271434         2.480049        -0.131414
 H         2.194021         1.177303        -1.496316
 H         4.218514        -0.674759        -0.866545
