19
Iteration:  2953
 C        -0.003381         0.276929        -0.141585
 C         1.419806        -0.011975         0.209211
 C         1.994291        -0.017871         1.616941
 C         3.496540        -0.114224         1.234492
 O         4.069920         1.227429         1.207794
 C         3.352988         1.927803         0.126493
 C         2.493307         0.827399        -0.546377
 C         3.298150        -0.497402        -0.247385
 O         1.937441        -1.343741        -0.229801
 H        -0.376272         1.219841        -0.450506
 H        -0.256428        -0.342074        -1.066167
 H        -0.712569        -0.121216         0.628430
 H         1.787886         0.931354         2.225202
 H         1.597172        -0.896897         2.122237
 H         4.087434        -0.888595         1.812720
 H         2.682281         2.679899         0.517974
 H         3.956487         2.539259        -0.610475
 H         2.016583         1.080027        -1.430940
 H         4.188821        -0.968824        -0.805014
