19
Iteration:  4368charge 0 multiplicity 1
 C         0.011967         0.373341        -0.095115
 C         1.464344         0.005144         0.281969
 C         2.064876        -0.104125         1.694766
 C         3.511350        -0.058177         1.221002
 O         3.939013         1.275681         1.172551
 C         3.287243         1.878553         0.002706
 C         2.506961         0.718265        -0.603718
 C         3.255842        -0.567124        -0.252077
 O         1.976634        -1.280736        -0.191835
 H        -0.189273        -0.119185        -1.061111
 H        -0.725898         0.016291         0.630832
 H        -0.093495         1.415880        -0.196477
 H         1.886965         0.854411         2.251842
 H         1.630348        -1.024853         2.257515
 H         4.204571        -0.642317         1.835724
 H         2.837778         2.854183         0.339353
 H         4.082647         2.107749        -0.702645
 H         2.184989         0.737119        -1.623835
 H         4.002256        -1.007269        -0.804089
