19
Iteration:  4509
 C        -0.009483         0.461303        -0.007211
 C         1.451132        -0.038829         0.209355
 C         2.019880         0.085207         1.652041
 C         3.515586        -0.058125         1.251169
 O         3.933620         1.264342         1.170507
 C         3.246870         1.859094        -0.043647
 C         2.573031         0.679709        -0.664162
 C         3.328180        -0.614122        -0.203230
 O         2.027388        -1.412054        -0.151782
 H        -0.364559         1.320239         0.666052
 H        -0.164593         0.733847        -1.134242
 H        -0.645688        -0.397830         0.127748
 H         1.755945         1.055577         1.918182
 H         1.431307        -0.517150         2.343493
 H         4.131100        -0.663207         1.957069
 H         2.498962         2.565459         0.375843
 H         3.902197         2.295784        -0.795795
 H         2.292177         0.656145        -1.679587
 H         3.994535        -1.121995        -0.796989
