19
Iteration:   194charge 0 multiplicity 1
 C        -0.092130         0.026035        -0.080359
 C         1.389663         0.062278         0.216188
 C         1.995637        -0.508139         1.509840
 C         3.492641        -0.318841         1.031196
 O         4.126971         0.881709         1.414206
 C         3.305110         1.933462         0.826545
 C         2.441478         1.184250        -0.241171
 C         3.232137        -0.118495        -0.593760
 O         2.085320        -0.849850        -0.849478
 H        -0.805405         0.215683         0.858439
 H        -0.381850         0.760150        -0.870245
 H        -0.115151        -0.947419        -0.492516
 H         1.794106         0.280220         2.409461
 H         1.782988        -1.529845         1.801874
 H         4.064446        -1.139263         1.454929
 H         2.769734         2.457296         1.645240
 H         3.889266         2.637446         0.285619
 H         2.154820         1.783603        -1.205644
 H         3.987379        -0.086664        -1.349108
