19
Iteration:  4764charge 0 multiplicity 1
 C        -0.109418         0.002199         0.012824
 C         1.392701         0.011274         0.196552
 C         1.941163         0.379496         1.581706
 C         3.427807        -0.016172         1.328209
 O         4.242650         1.161854         1.078068
 C         3.451840         1.845279         0.056486
 C         2.566737         0.731648        -0.760824
 C         3.168357        -0.546525        -0.183344
 O         1.911815        -1.258519        -0.112286
 H        -0.255120        -0.892823        -0.642555
 H        -0.604639        -0.278425         0.983387
 H        -0.551588         0.936401        -0.542512
 H         1.904158         1.462986         1.905345
 H         1.484927        -0.220910         2.333083
 H         3.907993        -0.630540         2.048667
 H         2.960543         2.758642         0.403727
 H         4.273406         2.033268        -0.680472
 H         2.093326         0.631672        -1.743863
 H         3.955678        -1.076477        -0.687044
