19
Iteration:  2778charge 0 multiplicity 1
 C         0.018735         0.364520        -0.055806
 C         1.429347        -0.000067         0.126427
 C         1.984313         0.019314         1.705918
 C         3.497036        -0.111009         1.199732
 O         4.013711         1.268908         1.215512
 C         3.200148         1.868184         0.181009
 C         2.566967         0.703688        -0.610538
 C         3.327408        -0.603153        -0.268453
 O         1.995770        -1.304425        -0.320289
 H        -0.118114         1.399507        -0.081414
 H        -0.440262        -0.149276        -0.906329
 H        -0.588212        -0.030158         0.815308
 H         1.974979         0.975867         2.297498
 H         1.407085        -0.748279         2.313239
 H         4.293734        -0.629177         1.752731
 H         2.388505         2.610298         0.613350
 H         3.882268         2.456985        -0.525282
 H         2.251069         0.886994        -1.563812
 H         4.217299        -1.044812        -0.773754
