19
Iteration:  1482charge 0 multiplicity 1
 C        -0.096010         0.175281        -0.081751
 C         1.435106         0.084849         0.193468
 C         1.988466        -0.008181         1.644350
 C         3.471104        -0.069386         1.294943
 O         4.100958         1.160421         1.189362
 C         3.346625         1.934804         0.194321
 C         2.558872         0.742879        -0.602988
 C         3.290544        -0.506358        -0.240722
 O         1.924154        -1.219543        -0.367139
 H        -0.515203         1.140796        -0.532849
 H        -0.244580        -0.554610        -0.854295
 H        -0.711521        -0.030432         0.901917
 H         1.909831         0.904671         2.249578
 H         1.618178        -0.868649         2.207959
 H         4.155302        -0.656408         1.917680
 H         2.589541         2.512310         0.672207
 H         4.169089         2.501052        -0.384600
 H         2.252731         0.784793        -1.727475
 H         4.145394        -0.970393        -0.819466
