19
Iteration:   841
 C        -0.118349         0.091708        -0.114745
 C         1.379354         0.033454         0.232118
 C         1.945549        -0.066066         1.634376
 C         3.491284        -0.197056         1.200998
 O         4.091702         1.087923         1.282226
 C         3.372941         1.905331         0.298406
 C         2.547318         0.939326        -0.494701
 C         3.265921        -0.385532        -0.351387
 O         2.023079        -1.133362        -0.454860
 H        -0.784176         0.568279         0.586078
 H        -0.187977         0.669618        -1.002453
 H        -0.579847        -0.917051        -0.316745
 H         1.910721         0.849934         2.406262
 H         1.588899        -0.979634         2.163506
 H         4.068192        -1.075804         1.676947
 H         2.747170         2.689997         0.766894
 H         4.107350         2.476141        -0.324765
 H         2.247705         1.336211        -1.507208
 H         4.146359        -0.681793        -0.940535
