19
Iteration:  2628
 C         0.063938         0.244392        -0.103377
 C         1.411782        -0.001140         0.199479
 C         2.007708        -0.016131         1.625355
 C         3.463294        -0.054242         1.219766
 O         4.053529         1.232934         1.211977
 C         3.298413         1.873174         0.076692
 C         2.523085         0.799513        -0.559200
 C         3.202484        -0.506684        -0.268115
 O         1.978014        -1.318411        -0.213916
 H        -0.247036         1.234228        -0.000277
 H        -0.227999         0.084718        -1.195371
 H        -0.619984        -0.319108         0.579471
 H         2.055238         0.839852         2.380632
 H         1.647070        -0.800018         2.180454
 H         4.031536        -0.794674         1.814540
 H         2.583476         2.711684         0.519005
 H         4.038365         2.347753        -0.510506
 H         2.288163         1.030280        -1.565001
 H         4.003867        -0.974418        -0.848907
