19
Iteration:  4472
 C        -0.119954         0.184708        -0.081224
 C         1.412210         0.057800         0.234553
 C         1.945717         0.004865         1.703084
 C         3.468421        -0.017888         1.335570
 O         4.150459         1.235039         1.088917
 C         3.404050         1.906277        -0.066437
 C         2.555082         0.746152        -0.612421
 C         3.211402        -0.593444        -0.116919
 O         1.925865        -1.206345        -0.223850
 H        -0.769895         0.980675        -0.303430
 H        -0.102276        -0.545085        -0.931773
 H        -0.629473        -0.468159         0.739658
 H         1.665571         0.893213         2.341851
 H         1.699090        -0.960991         2.141683
 H         4.148734        -0.541103         1.981259
 H         2.971972         2.840862         0.290391
 H         4.305388         2.170548        -0.704433
 H         2.540161         0.746855        -1.766178
 H         4.130053        -0.968069        -0.773922
