19
Iteration:   318
 C        -0.017266         0.201924         0.066984
 C         1.464428         0.070922         0.136209
 C         2.051161        -0.523517         1.465355
 C         3.531787        -0.320000         1.066646
 O         3.947643         0.999119         1.420624
 C         3.208150         1.962480         0.646511
 C         2.448441         1.115182        -0.329213
 C         3.350822        -0.287010        -0.463085
 O         2.045918        -0.939714        -0.809351
 H        -0.275378         0.808839        -0.775840
 H        -0.490337        -0.801960        -0.042903
 H        -0.484997         0.784921         0.987779
 H         1.924732         0.110050         2.385165
 H         1.607778        -1.593069         1.679787
 H         4.195768        -1.106458         1.470376
 H         2.626263         2.585464         1.302257
 H         3.953264         2.689244         0.173353
 H         2.169073         1.566081        -1.201397
 H         4.133218        -0.565752        -1.237110
