19
Iteration:  4251charge 0 multiplicity 1
 C        -0.097235         0.148206        -0.138180
 C         1.365859         0.053069         0.364572
 C         1.987469         0.064442         1.720529
 C         3.505424        -0.110809         1.275826
 O         4.113296         1.210555         1.083344
 C         3.416803         1.875085         0.091300
 C         2.522451         0.827488        -0.573873
 C         3.216182        -0.525403        -0.287544
 O         1.992165        -1.281742        -0.229704
 H        -0.767900        -0.795667        -0.166867
 H        -0.737857         0.884297         0.293313
 H        -0.105188         0.435105        -1.239344
 H         1.749971         0.976805         2.289292
 H         1.626873        -0.791208         2.180727
 H         4.195089        -0.700290         1.844536
 H         2.767487         2.689649         0.459279
 H         4.025185         2.365996        -0.692709
 H         2.242169         0.965297        -1.539736
 H         4.024024        -0.815439        -0.904354
