19
Iteration:  4238charge 0 multiplicity 1
 C        -0.094493         0.171500        -0.094560
 C         1.394532         0.077303         0.193062
 C         2.008395        -0.057173         1.675342
 C         3.520061        -0.052644         1.251468
 O         4.103933         1.227185         1.112412
 C         3.340823         1.933623         0.022682
 C         2.565351         0.775852        -0.543707
 C         3.228115        -0.555537        -0.139445
 O         1.924451        -1.221287        -0.267424
 H        -0.532158        -0.729563         0.373354
 H        -0.460905         1.094441         0.355798
 H        -0.212260         0.198028        -1.170347
 H         1.828357         0.753382         2.395368
 H         1.682684        -1.015002         2.181144
 H         4.195786        -0.629988         1.873861
 H         2.752471         2.703003         0.507263
 H         4.153835         2.288417        -0.579604
 H         2.322496         0.874482        -1.591669
 H         3.966904        -1.079699        -0.637622
