19
Iteration:  2482
 C        -0.133982         0.124523        -0.108933
 C         1.367736         0.021095         0.201262
 C         2.001606         0.172419         1.583777
 C         3.444365        -0.121570         1.229570
 O         4.135597         1.174456         1.160625
 C         3.376436         1.829645         0.176340
 C         2.544673         0.775077        -0.533080
 C         3.241394        -0.519478        -0.226943
 O         2.031533        -1.198350        -0.263763
 H        -0.659595         0.916277         0.578068
 H        -0.402457         0.391005        -1.119175
 H        -0.605650        -0.839813         0.134433
 H         2.018700         1.036685         2.165119
 H         1.519328        -0.706471         2.175387
 H         4.056933        -0.734125         1.921937
 H         2.650699         2.641051         0.647622
 H         4.021332         2.349585        -0.614100
 H         2.293475         1.011405        -1.645641
 H         4.038653        -1.001572        -0.848912
