19
Iteration:   233
 C        -0.092121         0.141219         0.035210
 C         1.440656         0.084549         0.147245
 C         2.048554        -0.402016         1.436043
 C         3.517837        -0.345799         1.070257
 O         4.097508         0.948061         1.421682
 C         3.160054         1.918123         0.848070
 C         2.493356         1.102193        -0.302261
 C         3.240612        -0.201743        -0.568295
 O         2.100318        -0.932868        -0.849705
 H        -0.466066        -0.777390         0.357876
 H        -0.595892         1.032901         0.433627
 H        -0.316565         0.134743        -1.102942
 H         1.777694         0.128823         2.261167
 H         1.665791        -1.444854         1.547862
 H         4.194162        -1.140933         1.422935
 H         2.442352         2.330924         1.612379
 H         3.917783         2.719416         0.479226
 H         2.184943         1.661270        -1.208486
 H         4.036543        -0.377868        -1.354319
