19
Iteration:  2338
 C        -0.018994         0.028951        -0.064516
 C         1.383605         0.064214         0.155071
 C         1.913092         0.190560         1.667317
 C         3.420334        -0.148941         1.262516
 O         4.230944         1.147449         1.131284
 C         3.351766         1.876478         0.203986
 C         2.532205         0.866819        -0.568293
 C         3.185831        -0.538135        -0.222065
 O         1.990996        -1.206962        -0.344837
 H        -0.466725         0.783534         0.618647
 H        -0.393114         0.271298        -1.098015
 H        -0.396551        -0.943365         0.105272
 H         1.787081         1.107951         2.158652
 H         1.398763        -0.619611         2.296502
 H         3.818401        -0.740268         2.059584
 H         2.936524         2.714229         0.641077
 H         4.042298         2.258434        -0.594538
 H         2.246443         1.146246        -1.654697
 H         3.974675        -1.042959        -0.719976
