19
Iteration:  1394
 C        -0.034633         0.247284        -0.068442
 C         1.401950         0.061004         0.206021
 C         2.010582         0.003667         1.692393
 C         3.448527        -0.103235         1.247435
 O         4.085610         1.216646         1.167423
 C         3.285562         1.882086         0.121845
 C         2.589076         0.763888        -0.615202
 C         3.219055        -0.541084        -0.248251
 O         2.003569        -1.281949        -0.265782
 H        -0.481219         0.894914         0.719845
 H        -0.055715         0.841894        -1.016939
 H        -0.570934        -0.780747        -0.345951
 H         1.778714         0.791505         2.350297
 H         1.405922        -0.797610         2.152778
 H         4.170046        -0.736485         1.696580
 H         2.498634         2.550061         0.489230
 H         4.048628         2.512417        -0.423785
 H         2.379392         0.995160        -1.708591
 H         4.067128        -0.929900        -0.759086
