19
Iteration:  1139charge 0 multiplicity 1
 C        -0.028986         0.284410        -0.038470
 C         1.397052         0.014109         0.172932
 C         1.929058         0.008480         1.587083
 C         3.459998        -0.138659         1.273765
 O         4.026739         1.237558         1.214615
 C         3.334789         1.906700         0.143504
 C         2.564025         0.775977        -0.521382
 C         3.244827        -0.600808        -0.280046
 O         2.062827        -1.271639        -0.319756
 H        -0.173864         0.886322         0.878441
 H        -0.293527         0.805004        -1.072439
 H        -0.605894        -0.574917        -0.014224
 H         1.716129         0.901939         2.051105
 H         1.377160        -0.745251         2.165892
 H         4.291193        -0.589726         1.908748
 H         2.643976         2.755547         0.357309
 H         4.173940         2.276686        -0.541824
 H         2.191207         0.809790        -1.551858
 H         4.144790        -0.924286        -0.938039
