19
Iteration:  2259
 C        -0.015598         0.412536        -0.013428
 C         1.467620        -0.001409         0.138097
 C         1.997532        -0.062525         1.774255
 C         3.532874        -0.133862         1.237843
 O         3.922177         1.218944         1.203653
 C         3.200251         1.943948         0.025608
 C         2.578753         0.733435        -0.584655
 C         3.330941        -0.643851        -0.193119
 O         2.043616        -1.264473        -0.356030
 H        -0.075507         1.319374         0.544032
 H        -0.184475         0.705926        -1.165682
 H        -0.915159        -0.183129         0.456244
 H         1.657458         1.007237         2.205829
 H         1.454238        -0.888745         2.132960
 H         4.255187        -0.818048         1.801137
 H         2.486803         2.542169         0.458758
 H         3.962886         2.420398        -0.657301
 H         2.328357         0.778692        -1.573631
 H         4.176759        -1.077966        -0.772060
