19
Iteration:  4269
 C        -0.018920         0.124105        -0.177527
 C         1.386546        -0.006854         0.208877
 C         1.995856         0.150421         1.716896
 C         3.476059        -0.057134         1.174253
 O         4.180965         1.102544         1.163949
 C         3.324116         1.892406         0.093541
 C         2.422640         0.789760        -0.537034
 C         3.184148        -0.455782        -0.277224
 O         1.995817        -1.259809        -0.165132
 H        -0.377467        -0.867320        -0.297622
 H        -0.513354         0.572558         0.704166
 H        -0.085450         0.665675        -1.069783
 H         2.039285         1.209417         2.017360
 H         1.673684        -0.529166         2.638779
 H         3.980108        -0.900668         1.674488
 H         2.848364         2.799592         0.495433
 H         4.049838         2.263619        -0.616836
 H         2.039659         1.112312        -1.568098
 H         3.978884        -0.994448        -0.769062
