19
Iteration:  1345
 C        -0.055537         0.015452        -0.107899
 C         1.358280         0.088654         0.183954
 C         1.933668         0.149275         1.750673
 C         3.361756        -0.091737         1.282554
 O         4.198575         1.074332         1.126816
 C         3.411037         1.927909         0.150062
 C         2.557726         0.853122        -0.613766
 C         3.262452        -0.489920        -0.230141
 O         1.946236        -1.179328        -0.342401
 H        -0.538733         0.526701         0.720276
 H        -0.437365         0.343278        -1.108894
 H        -0.128076        -1.001011        -0.033841
 H         1.672540         1.127300         2.360934
 H         1.618321        -0.717282         2.323699
 H         4.051253        -0.741176         1.940943
 H         2.749185         2.518962         0.799441
 H         4.129993         2.450556        -0.511552
 H         2.275208         0.968678        -1.637083
 H         4.046423        -1.162808        -0.787764
