19
Iteration:  2471charge 0 multiplicity 1
 C        -0.055784         0.172800        -0.005645
 C         1.418215         0.051885         0.183706
 C         1.947384         0.115414         1.667247
 C         3.489955        -0.088545         1.275047
 O         4.092187         1.172242         1.225611
 C         3.325453         1.886563         0.090933
 C         2.559350         0.774447        -0.611409
 C         3.268832        -0.499477        -0.257083
 O         1.949065        -1.312560        -0.346094
 H        -0.485557         1.078567         0.594152
 H        -0.107938         0.341892        -1.061442
 H        -0.577141        -0.763100         0.184466
 H         1.759365         1.070474         2.041153
 H         1.423762        -0.690402         2.320833
 H         4.129567        -0.763577         1.889126
 H         2.719522         2.719949         0.626064
 H         4.096802         2.412623        -0.571162
 H         2.494702         0.833311        -1.775723
 H         4.151628        -0.893157        -0.825312
