19
Iteration:   246
 C        -0.007033         0.214311         0.014257
 C         1.447605         0.037190         0.134755
 C         1.986720        -0.530077         1.490802
 C         3.547151        -0.333616         1.050187
 O         4.037522         0.971573         1.427691
 C         3.165931         1.898269         0.744849
 C         2.529023         1.136708        -0.339360
 C         3.321204        -0.191971        -0.540210
 O         2.036821        -0.923057        -0.817716
 H        -0.520997        -0.759828         0.165643
 H        -0.264118         0.729649         0.943623
 H        -0.427949         0.699050        -0.862868
 H         1.714371         0.008134         2.371424
 H         1.717090        -1.561834         1.624084
 H         4.243320        -1.076367         1.394078
 H         2.300491         2.218695         1.455243
 H         3.587075         2.847985         0.428575
 H         2.075715         1.799773        -1.232437
 H         4.211225        -0.384118        -1.118642
