19
Iteration:  2645
 C        -0.156653         0.146758        -0.144740
 C         1.416611         0.021420         0.273357
 C         1.969127         0.109990         1.694065
 C         3.527213        -0.149368         1.260778
 O         4.086379         1.175373         1.109236
 C         3.350541         1.935508         0.185612
 C         2.524224         0.800734        -0.592543
 C         3.279494        -0.569871        -0.283056
 O         2.011226        -1.228928        -0.253006
 H        -0.472356         1.227205         0.134158
 H        -0.134050         0.161833        -1.203465
 H        -0.763396        -0.644889         0.337726
 H         1.623038         1.065004         1.997128
 H         1.502450        -0.753211         2.347211
 H         4.177706        -0.727005         1.899120
 H         2.824815         2.686557         0.759095
 H         4.010261         2.402401        -0.624652
 H         2.248511         0.884166        -1.683796
 H         4.203811        -0.927617        -0.774555
