19
Iteration:  1524charge 0 multiplicity 1
 C        -0.055760         0.096729        -0.141832
 C         1.392624         0.034117         0.211656
 C         1.964951         0.187116         1.651077
 C         3.384552        -0.152841         1.241628
 O         4.189541         1.078328         1.119082
 C         3.327256         1.923520         0.249962
 C         2.518812         0.813638        -0.510803
 C         3.265034        -0.466717        -0.326329
 O         2.020579        -1.228811        -0.250577
 H        -0.472564         1.096588        -0.339873
 H        -0.205297        -0.439829        -1.078892
 H        -0.681318        -0.221065         0.543217
 H         1.825424         1.069842         2.168380
 H         1.533427        -0.776041         2.063316
 H         3.825911        -0.869664         1.941129
 H         2.720411         2.475552         0.979921
 H         3.959208         2.560106        -0.498695
 H         2.155158         1.122202        -1.595024
 H         4.121997        -0.777560        -0.974544
