19
Iteration:  2663
 C        -0.124780         0.070200        -0.111261
 C         1.354698         0.058440         0.159079
 C         1.956285         0.141928         1.670196
 C         3.432803        -0.065244         1.304395
 O         4.259403         1.122871         1.088917
 C         3.334820         1.867369         0.170691
 C         2.568796         0.808676        -0.551327
 C         3.222466        -0.484327        -0.149010
 O         1.969629        -1.221128        -0.336711
 H        -0.606966         0.828281         0.511390
 H        -0.339571         0.078179        -1.228568
 H        -0.400653        -0.924709         0.191408
 H         1.983206         1.170550         2.166244
 H         1.623656        -0.700676         2.337446
 H         4.046675        -0.694471         1.986578
 H         2.462060         2.556445         0.616262
 H         3.997844         2.472096        -0.491998
 H         2.359985         1.059411        -1.666170
 H         3.980122        -0.975000        -0.766577
