19
Iteration:  3728
 C         0.040388         0.351370        -0.109979
 C         1.466571        -0.027717         0.207731
 C         2.056814        -0.112870         1.640811
 C         3.486453        -0.152754         1.166212
 O         4.017085         1.158940         1.221827
 C         3.216219         1.866145         0.277028
 C         2.465354         0.870808        -0.610975
 C         3.292429        -0.465716        -0.263352
 O         1.990209        -1.279904        -0.313900
 H        -0.295364        -0.176820        -1.069171
 H        -0.776698         0.066223         0.594740
 H        -0.105368         1.452857        -0.247951
 H         2.001482         0.862579         2.173160
 H         1.723136        -1.004167         1.958087
 H         4.165667        -0.623710         1.835141
 H         2.486978         2.538614         0.831280
 H         3.832412         2.527070        -0.352421
 H         2.170812         1.312121        -1.565942
 H         4.096760        -0.916583        -0.764849
