19
Iteration:  3937charge 0 multiplicity 1
 C        -0.176279         0.045665        -0.133281
 C         1.401923         0.041027         0.251792
 C         1.893574         0.032857         1.683376
 C         3.446200        -0.149038         1.268080
 O         4.161998         1.206897         1.212767
 C         3.520292         1.882644         0.078222
 C         2.484052         0.902176        -0.479194
 C         3.227799        -0.443147        -0.279578
 O         1.986647        -1.224153        -0.335761
 H        -0.747222         0.453961         0.735282
 H        -0.396888         0.660207        -0.943636
 H        -0.373157        -1.030541        -0.212812
 H         1.830672         0.962756         2.335174
 H         1.632053        -0.898690         2.162883
 H         4.206152        -0.845155         1.758747
 H         3.069199         2.861287         0.274157
 H         4.213354         1.984882        -0.778568
 H         2.271369         1.216287        -1.476000
 H         4.051545        -0.769467        -0.948735
