19
Iteration:  4070charge 0 multiplicity 1
 C        -0.057191         0.191473         0.022428
 C         1.423586         0.143674         0.237156
 C         2.010772        -0.079093         1.578766
 C         3.477730        -0.119318         1.287957
 O         4.020986         1.195475         1.218204
 C         3.324685         1.919916         0.132554
 C         2.629006         0.871764        -0.600107
 C         3.262208        -0.595290        -0.246951
 O         1.945191        -1.200651        -0.410908
 H        -0.412391         1.181193         0.042213
 H        -0.163138        -0.331296        -0.918698
 H        -0.493259        -0.370564         0.847982
 H         1.670719         0.554025         2.449578
 H         1.648178        -1.135909         1.838594
 H         4.077825        -0.666456         1.932327
 H         2.632188         2.643212         0.599519
 H         4.038193         2.438948        -0.514311
 H         2.386376         0.898909        -1.671067
 H         4.012873        -1.057808        -0.859864
