19
Iteration:  1503
 C        -0.106545         0.051445        -0.172334
 C         1.373318         0.057796         0.203688
 C         1.946433         0.087768         1.637236
 C         3.496387        -0.149797         1.224701
 O         4.243039         1.167321         1.110301
 C         3.319228         1.911407         0.299817
 C         2.575040         0.900219        -0.578404
 C         3.181475        -0.566027        -0.189952
 O         1.955879        -1.195621        -0.282306
 H        -0.582964         1.013658        -0.495446
 H        -0.386662        -0.592260        -0.949105
 H        -0.701064        -0.038177         0.746777
 H         1.720039         1.019764         2.069079
 H         1.634092        -0.855661         2.137013
 H         4.180260        -0.744440         1.838883
 H         2.567206         2.470341         0.827885
 H         4.035331         2.512768        -0.411681
 H         2.645877         1.289858        -1.705899
 H         3.992632        -1.074167        -0.794113
