19
Iteration:  3286
 C        -0.069259         0.079031        -0.158331
 C         1.391555         0.065325         0.237888
 C         1.944313         0.054999         1.717933
 C         3.448711         0.029294         1.299025
 O         4.135129         1.177628         1.159742
 C         3.449272         1.892489        -0.006677
 C         2.583614         0.756709        -0.604914
 C         3.203145        -0.562156        -0.226669
 O         1.925388        -1.182977        -0.202277
 H        -0.537491        -0.930248        -0.403728
 H        -0.574861         0.448287         0.721615
 H        -0.116274         0.905444        -0.899678
 H         1.571306         0.801491         2.341575
 H         1.543981        -0.948010         2.172315
 H         3.950537        -0.647216         1.998770
 H         2.944102         2.793802         0.370262
 H         4.292538         2.207907        -0.697101
 H         2.202086         0.788112        -1.657489
 H         4.047464        -1.054818        -0.754271
