19
Iteration:  4914charge 0 multiplicity 1
 C        -0.090071         0.033603        -0.110604
 C         1.334996         0.126497         0.276822
 C         1.983789         0.322113         1.628111
 C         3.480900        -0.033841         1.280996
 O         4.169287         1.161725         1.031594
 C         3.426980         1.852321        -0.104707
 C         2.521922         0.699643        -0.599690
 C         3.187574        -0.599392        -0.143072
 O         1.961080        -1.278098        -0.025459
 H        -0.057516        -0.357032        -1.129996
 H        -0.531308        -0.638056         0.537155
 H        -0.613178         1.004327        -0.090450
 H         1.879651         1.377446         2.032789
 H         1.553379        -0.318879         2.375507
 H         3.958667        -0.724894         2.074172
 H         2.994740         2.777590         0.262966
 H         4.154296         2.200141        -0.859348
 H         2.242603         0.903634        -1.634384
 H         3.887612        -1.113083        -0.786474
