19
Iteration:  1505charge 0 multiplicity 1
 C        -0.092876         0.053266        -0.181672
 C         1.381003         0.064481         0.198880
 C         1.938558         0.069893         1.623164
 C         3.497292        -0.138620         1.221936
 O         4.246111         1.149361         1.103339
 C         3.328813         1.920450         0.313223
 C         2.552998         0.901539        -0.592728
 C         3.181500        -0.538644        -0.178137
 O         1.949314        -1.211869        -0.272126
 H        -0.597617         1.029651        -0.520488
 H        -0.341287        -0.609457        -0.983939
 H        -0.746871        -0.084590         0.879697
 H         1.730367         1.098303         2.063681
 H         1.608644        -0.787297         2.194407
 H         4.219149        -0.742833         1.816272
 H         2.569809         2.461569         0.846141
 H         4.058831         2.514631        -0.353205
 H         2.614782         1.241067        -1.698236
 H         4.021149        -1.047681        -0.792684
