19
Iteration:  4840
 C         0.001466         0.488427         0.012801
 C         1.465449        -0.000532         0.229697
 C         1.999245         0.094085         1.679770
 C         3.495876        -0.009177         1.302725
 O         3.937247         1.343615         1.113551
 C         3.248799         1.815765        -0.236001
 C         2.594368         0.559711        -0.695634
 C         3.310455        -0.740352        -0.155038
 O         2.003653        -1.369149        -0.051842
 H         0.025188         0.982851        -0.934747
 H        -0.774509        -0.303801         0.019457
 H        -0.291053         1.291592         0.799711
 H         1.732107         1.125429         1.987317
 H         1.412514        -0.519624         2.286993
 H         4.026068        -0.371821         2.120533
 H         2.428133         2.547219        -0.029727
 H         4.100534         2.268156        -0.854142
 H         2.582659         0.219137        -1.734310
 H         4.022580        -1.269840        -0.694381
