19
Iteration:  2839charge 0 multiplicity 1
 C        -0.114874         0.019636        -0.115014
 C         1.395628         0.038658         0.231574
 C         1.979057         0.042982         1.680553
 C         3.434253        -0.052992         1.281348
 O         4.167361         1.161035         1.167885
 C         3.464850         1.919322         0.094794
 C         2.548163         0.822239        -0.590680
 C         3.179136        -0.508460        -0.242103
 O         1.928369        -1.177645        -0.273844
 H        -0.823896         0.912649         0.214322
 H        -0.004142         0.111823        -1.196206
 H        -0.533433        -0.957752         0.112562
 H         1.947467         0.941025         2.252987
 H         1.581584        -0.768554         2.350152
 H         4.003779        -0.683055         1.919095
 H         2.919843         2.727605         0.529768
 H         4.216655         2.414495        -0.497845
 H         2.244087         1.161940        -1.661512
 H         3.988700        -0.907877        -0.804012
