19
Iteration:  2186charge 0 multiplicity 1
 C        -0.056776         0.051955        -0.145343
 C         1.338579         0.049686         0.256985
 C         1.874261         0.112017         1.676915
 C         3.498372        -0.093583         1.242599
 O         4.232018         1.121190         1.238814
 C         3.380719         1.898837         0.163504
 C         2.481238         0.857107        -0.556545
 C         3.249997        -0.510110        -0.282787
 O         1.954641        -1.173151        -0.360395
 H        -0.448118         0.930066        -0.584131
 H        -0.182803        -0.818862        -0.799618
 H        -0.599181        -0.093530         0.722873
 H         1.789629         1.037773         2.130404
 H         1.571490        -0.718728         2.324097
 H         4.057596        -0.797291         1.852754
 H         2.866303         2.684677         0.816134
 H         4.134470         2.291970        -0.516447
 H         2.384621         0.946791        -1.693345
 H         3.951111        -0.956623        -0.962450
