19
Iteration:  2110charge 0 multiplicity 1
 C        -0.007679         0.407360        -0.042751
 C         1.458046         0.012968         0.175655
 C         1.995332        -0.099642         1.616445
 C         3.477845        -0.105569         1.261823
 O         3.998128         1.235657         1.217271
 C         3.202153         1.960057         0.132303
 C         2.607722         0.708561        -0.625552
 C         3.276022        -0.591795        -0.212286
 O         2.020439        -1.313978        -0.312646
 H        -0.052493         1.480715         0.428215
 H        -0.244793         0.577856        -1.162091
 H        -0.710704        -0.203631         0.443460
 H         1.691574         0.675715         2.223012
 H         1.612974        -1.075021         2.039236
 H         4.342126        -0.623426         1.671347
 H         2.555371         2.749469         0.625048
 H         3.856694         2.580674        -0.404981
 H         2.127860         0.645364        -1.653370
 H         4.118478        -1.001627        -0.743483
