19
Iteration:  1922
 C         0.050225         0.452176        -0.020829
 C         1.446108         0.004297         0.216044
 C         2.093829        -0.108976         1.556806
 C         3.508679        -0.123736         1.252171
 O         3.942096         1.260293         1.219863
 C         3.141796         1.906870         0.190424
 C         2.518220         0.738119        -0.549753
 C         3.297560        -0.623267        -0.292808
 O         2.042082        -1.332594        -0.344780
 H         0.151702         1.521112        -0.035624
 H        -0.237920         0.268255        -1.125651
 H        -0.876116         0.307798         0.670746
 H         1.868690         0.847679         2.137620
 H         1.657896        -0.966252         2.057603
 H         4.153362        -0.616793         2.074903
 H         2.380746         2.621228         0.525564
 H         3.734013         2.469004        -0.437651
 H         2.280831         0.856362        -1.568377
 H         4.169968        -1.044295        -0.916931
