19
Iteration:  1077charge 0 multiplicity 1
 C         0.000165         0.316211        -0.100014
 C         1.472884        -0.035400         0.193323
 C         2.017729        -0.053520         1.607798
 C         3.484406        -0.124774         1.253180
 O         4.027747         1.212251         1.212083
 C         3.298511         1.972738         0.221269
 C         2.534660         0.798699        -0.602672
 C         3.214528        -0.529313        -0.236640
 O         1.983575        -1.338594        -0.335095
 H        -0.020923         1.313214        -0.576691
 H        -0.382269        -0.295417        -0.940214
 H        -0.860812         0.330235         0.682724
 H         1.897155         0.908903         2.187182
 H         1.522212        -0.980446         2.233513
 H         4.212702        -0.773833         1.898984
 H         2.638460         2.730815         0.703412
 H         3.970049         2.683122        -0.247801
 H         2.190979         0.937710        -1.604000
 H         4.084339        -0.913934        -0.796718
