19
Iteration:  3679
 C        -0.015193         0.257931         0.001295
 C         1.455099         0.055187         0.151369
 C         2.032831        -0.110062         1.569832
 C         3.475902        -0.133773         1.262757
 O         3.993665         1.161688         1.231555
 C         3.262246         1.949263         0.226332
 C         2.602823         0.771701        -0.569463
 C         3.249166        -0.484282        -0.223524
 O         1.979977        -1.194984        -0.396537
 H        -0.468943        -0.330121        -0.770045
 H        -0.614238         0.122928         0.883366
 H        -0.163567         1.306448        -0.297478
 H         1.681092         0.698382         2.189101
 H         1.719479        -1.256331         1.683380
 H         4.148029        -0.775383         1.997021
 H         2.609959         2.765103         0.575291
 H         4.023317         2.494667        -0.398316
 H         2.433402         0.896667        -1.673562
 H         4.004937        -0.998099        -0.963497
