19
Iteration:  1883
 C        -0.105833         0.188360         0.036943
 C         1.421397         0.051498         0.187539
 C         1.973410        -0.022479         1.584861
 C         3.453724        -0.142634         1.312038
 O         4.028946         1.212586         1.188463
 C         3.350498         1.897501         0.098053
 C         2.583473         0.810280        -0.584333
 C         3.284994        -0.556795        -0.224120
 O         2.007061        -1.170641        -0.359261
 H        -0.595450         1.097606         0.529164
 H        -0.205797         0.279155        -1.052857
 H        -0.533668        -0.737694         0.312984
 H         1.700138         0.746214         2.270464
 H         1.655751        -1.081088         1.939214
 H         4.043519        -0.694714         1.996257
 H         2.878008         2.837586         0.544325
 H         4.168700         2.393403        -0.626598
 H         2.428346         0.921038        -1.686989
 H         4.050015        -1.075492        -0.817633
