19
Iteration:   948
 C        -0.042692         0.442574        -0.171331
 C         1.489519         0.029418         0.145858
 C         2.082966        -0.232613         1.665115
 C         3.535382        -0.194403         1.246010
 O         4.006429         1.246178         1.195702
 C         3.118153         1.960760         0.281675
 C         2.529456         0.768545        -0.541705
 C         3.316046        -0.541035        -0.237742
 O         1.956380        -1.249088        -0.361549
 H        -0.527428        -0.150798        -0.972359
 H        -0.619601         0.320594         0.749896
 H         0.078321         1.608818        -0.479858
 H         1.940624         0.525057         2.496485
 H         1.782028        -1.156563         1.959143
 H         4.398928        -0.869606         1.708842
 H         2.300901         2.524321         0.798471
 H         3.811379         2.534670        -0.391021
 H         2.540847         0.974132        -1.619164
 H         4.245117        -1.002175        -0.645430
