19
Iteration:  1532
 C        -0.055539         0.122572        -0.147218
 C         1.416500         0.038833         0.257248
 C         1.942907         0.162493         1.653686
 C         3.411151        -0.152791         1.219193
 O         4.165699         1.099109         1.144607
 C         3.304936         1.856871         0.223323
 C         2.506124         0.852545        -0.535042
 C         3.249109        -0.498126        -0.306831
 O         2.053918        -1.221934        -0.286730
 H        -0.306494         1.181238        -0.173722
 H        -0.282997        -0.305481        -1.199418
 H        -0.731196        -0.336562         0.621921
 H         1.745713         1.068515         2.214386
 H         1.597537        -0.693299         2.352595
 H         3.952062        -0.826155         1.864598
 H         2.625746         2.656868         0.694378
 H         3.944219         2.380916        -0.447184
 H         2.310648         1.176246        -1.533630
 H         4.041870        -0.867672        -0.885181
