19
Iteration:  2520charge 0 multiplicity 1
 C        -0.037205         0.067920        -0.166109
 C         1.384157         0.115007         0.275299
 C         1.963248         0.101282         1.679530
 C         3.429225        -0.101110         1.243093
 O         4.209935         1.198514         1.050572
 C         3.364270         1.841689         0.187489
 C         2.540368         0.791385        -0.521146
 C         3.184747        -0.537369        -0.222335
 O         1.941980        -1.179754        -0.271995
 H        -0.496858         0.822342         0.358300
 H        -0.034057         0.158956        -1.283109
 H        -0.449124        -0.930880        -0.005902
 H         1.705613         1.070884         2.298317
 H         1.862625        -0.786959         2.204077
 H         3.810449        -0.856308         1.918191
 H         2.707370         2.505244         0.637601
 H         4.000634         2.465828        -0.374878
 H         2.231844         0.906762        -1.509079
 H         3.994321        -0.934267        -0.804226
