19
Iteration:  3539
 C        -0.060926         0.370029         0.056043
 C         1.450624         0.054253         0.102610
 C         1.964586        -0.124659         1.573035
 C         3.411607        -0.182465         1.322915
 O         4.021398         1.229676         1.195878
 C         3.252252         1.882875         0.071711
 C         2.605795         0.813419        -0.564607
 C         3.337974        -0.569058        -0.166211
 O         2.053540        -1.234954        -0.360681
 H        -0.237398         1.294744        -0.475339
 H        -0.738421        -0.314688        -0.545584
 H        -0.558939         0.276019         1.052648
 H         1.770557         0.665590         2.251500
 H         1.528652        -1.064479         1.824912
 H         4.102493        -0.573282         2.154695
 H         2.507307         2.596545         0.469006
 H         3.890744         2.479947        -0.630483
 H         2.521553         0.698324        -1.678651
 H         4.182074        -0.845532        -0.925009
