19
Iteration:  1572
 C        -0.004228         0.317369         0.009121
 C         1.415506         0.106892         0.181708
 C         1.934054        -0.160912         1.653874
 C         3.475157        -0.037403         1.253615
 O         3.951325         1.289901         1.223530
 C         3.325692         1.843605         0.055642
 C         2.662128         0.764139        -0.629615
 C         3.266686        -0.615094        -0.235416
 O         2.004885        -1.227059        -0.329341
 H        -0.410753         1.023952         0.725989
 H        -0.273626         0.714976        -0.951230
 H        -0.647674        -0.629839         0.335601
 H         1.665929         0.603290         2.466126
 H         1.765355        -1.161905         1.854220
 H         4.089671        -0.642117         1.934030
 H         2.648045         2.635613         0.326689
 H         4.181914         2.120454        -0.582534
 H         2.405401         0.982941        -1.620137
 H         4.081481        -1.208043        -0.657607
