19
Iteration:  1576
 C         0.006930         0.340045         0.040264
 C         1.447969         0.095792         0.178782
 C         1.937036        -0.177785         1.653114
 C         3.465479        -0.028427         1.272648
 O         3.920354         1.279913         1.221298
 C         3.354208         1.833528         0.044859
 C         2.639702         0.726859        -0.667553
 C         3.254494        -0.592069        -0.218118
 O         2.023680        -1.216794        -0.326700
 H        -0.453145         1.018021         0.775317
 H        -0.336916         0.785778        -0.990081
 H        -0.572094        -0.591452         0.232828
 H         1.650485         0.519512         2.409323
 H         1.553439        -1.253292         1.894806
 H         4.220235        -0.571567         1.851117
 H         2.719140         2.681209         0.388538
 H         4.092781         2.251763        -0.608349
 H         2.396362         1.024190        -1.712129
 H         4.061431        -1.183136        -0.596247
