19
Iteration:  1328charge 0 multiplicity 1
 C        -0.113454         0.054081        -0.014759
 C         1.443756         0.131649         0.178729
 C         1.949583         0.037833         1.580481
 C         3.471461        -0.144996         1.306503
 O         4.104524         1.174345         1.134928
 C         3.389054         1.868568         0.146658
 C         2.603233         0.852033        -0.580637
 C         3.219356        -0.532500        -0.180185
 O         1.961948        -1.148955        -0.323540
 H        -0.718616         0.829586         0.485576
 H        -0.380884         0.139750        -1.113559
 H        -0.608541        -0.983556         0.195671
 H         1.781794         0.874569         2.192511
 H         1.467411        -0.829073         2.094135
 H         4.016043        -0.768472         1.975807
 H         2.886586         2.773533         0.500762
 H         4.117622         2.312681        -0.591341
 H         2.491149         1.011249        -1.666870
 H         4.037626        -0.899302        -0.689143
