19
Iteration:  3080
 C        -0.005170         0.332597        -0.118222
 C         1.431165         0.041345         0.196176
 C         1.997167        -0.065736         1.619393
 C         3.507733        -0.121618         1.224837
 O         4.004268         1.285964         1.173121
 C         3.288335         1.921090         0.171519
 C         2.551701         0.775030        -0.511062
 C         3.216923        -0.610834        -0.251481
 O         2.021509        -1.305549        -0.282929
 H         0.001455         1.427859        -0.397803
 H        -0.452464        -0.216089        -0.866464
 H        -0.689832         0.104675         0.708168
 H         1.754234         0.664253         2.356133
 H         1.731609        -1.033339         2.219041
 H         4.253330        -0.794341         1.771088
 H         2.406669         2.507495         0.569770
 H         3.909978         2.520850        -0.485065
 H         2.441071         0.904092        -1.634925
 H         4.083834        -0.972597        -0.848578
