19
Iteration:  1033
 C        -0.064813        -0.031034        -0.064754
 C         1.342152         0.102151         0.184849
 C         1.927438         0.053519         1.634012
 C         3.398159        -0.155608         1.305741
 O         4.109950         1.081127         1.222700
 C         3.496539         1.971049         0.126069
 C         2.626815         0.949881        -0.566828
 C         3.175177        -0.485714        -0.235024
 O         1.967687        -1.159677        -0.395355
 H        -0.579886         0.699701        -0.680509
 H        -0.457356        -0.978065        -0.534486
 H        -0.571324         0.186616         0.930087
 H         1.625621         0.931695         2.216887
 H         1.539882        -0.948065         2.127656
 H         4.179839        -0.807397         1.894347
 H         2.906852         2.753515         0.635510
 H         4.270502         2.558637        -0.335878
 H         2.700268         0.957309        -1.630381
 H         4.031675        -0.882466        -0.864692
