19
Iteration:  3473
 C        -0.121825         0.156535        -0.153468
 C         1.422135         0.081838         0.197867
 C         1.937754         0.093393         1.704736
 C         3.410093        -0.123217         1.260666
 O         4.196164         1.170316         1.153488
 C         3.340691         1.874560         0.152469
 C         2.519799         0.804430        -0.579081
 C         3.213564        -0.539391        -0.270777
 O         2.032491        -1.257155        -0.264860
 H        -0.510179         0.910528         0.515576
 H        -0.210796         0.553925        -1.165739
 H        -0.489094        -0.890385        -0.145267
 H         1.843930         0.966114         2.273411
 H         1.524515        -0.723613         2.273104
 H         3.943291        -0.939822         1.818577
 H         2.697506         2.543174         0.729412
 H         4.019764         2.522346        -0.426139
 H         2.369265         1.230395        -1.535944
 H         4.196733        -0.901152        -0.697394
