19
Iteration:  2702charge 0 multiplicity 1
 C        -0.136779         0.166026        -0.045103
 C         1.393631         0.056703         0.165221
 C         1.995155         0.058865         1.664417
 C         3.421605        -0.160831         1.238456
 O         4.054263         1.217394         1.219612
 C         3.384807         1.860148         0.084914
 C         2.644941         0.810110        -0.655122
 C         3.253478        -0.500167        -0.243211
 O         2.008144        -1.234973        -0.269043
 H        -0.601584         0.775429         0.701160
 H        -0.614357         0.298288        -1.026166
 H        -0.510153        -0.900263         0.269595
 H         1.839167         1.052911         2.095728
 H         1.639509        -0.594276         2.447373
 H         4.008975        -0.903235         1.789284
 H         2.756633         2.664716         0.442275
 H         4.109920         2.350204        -0.562313
 H         2.411070         1.020090        -1.629432
 H         4.188824        -0.909042        -0.645666
