19
Iteration:  3663charge 0 multiplicity 1
 C        -0.025758         0.193848         0.032519
 C         1.451183         0.099130         0.113667
 C         1.890916        -0.048581         1.610315
 C         3.465423        -0.179861         1.214969
 O         4.018661         1.207463         1.291049
 C         3.359501         1.919777         0.214724
 C         2.586711         0.879946        -0.614880
 C         3.316714        -0.570284        -0.329134
 O         1.993480        -1.223722        -0.384324
 H        -0.375883        -0.469108        -0.845543
 H        -0.483994        -0.333352         0.963812
 H        -0.496243         1.211464         0.005484
 H         1.794513         0.870531         2.283526
 H         1.394440        -0.776584         2.181550
 H         4.018083        -0.893074         1.728339
 H         2.578558         2.545008         0.706047
 H         4.039976         2.480428        -0.421682
 H         2.404805         1.213484        -1.619927
 H         4.104793        -1.052102        -0.792369
