19
Iteration:  3561
 C         0.031825         0.406358         0.024313
 C         1.481542        -0.069879         0.173996
 C         1.941942        -0.004252         1.644254
 C         3.448444        -0.052308         1.232650
 O         3.963880         1.193004         1.246704
 C         3.274923         1.902720         0.227479
 C         2.601415         0.774724        -0.651048
 C         3.272424        -0.566702        -0.307998
 O         2.038040        -1.335913        -0.375600
 H        -0.147221         1.221759        -0.650916
 H        -0.622125        -0.401952        -0.444019
 H        -0.513767         0.529141         0.982471
 H         1.631665         0.939872         2.010796
 H         1.514867        -0.817033         2.180457
 H         4.193443        -0.790296         1.685693
 H         2.513541         2.618876         0.574459
 H         4.004015         2.509717        -0.369597
 H         2.197860         0.828588        -1.703236
 H         4.275777        -0.983747        -0.720519
