19
Iteration:  3271charge 0 multiplicity 1
 C        -0.108761         0.228106        -0.115568
 C         1.392504         0.016905         0.200488
 C         1.983181         0.048632         1.644885
 C         3.483893        -0.184204         1.322175
 O         4.043634         1.281587         1.149367
 C         3.448739         1.887029        -0.012446
 C         2.535026         0.815317        -0.613617
 C         3.253646        -0.527056        -0.120280
 O         1.959875        -1.302541        -0.202706
 H        -0.481207        -0.776890        -0.445127
 H        -0.905665         0.625538         0.632587
 H        -0.319795         0.758182        -1.035483
 H         1.911082         0.968937         2.327428
 H         1.661697        -0.796621         2.229636
 H         4.283775        -0.668035         1.919121
 H         2.893406         2.805745         0.334729
 H         4.291166         2.163134        -0.715319
 H         2.441280         0.949421        -1.761394
 H         4.013142        -1.048016        -0.687014
