19
Iteration:  3861
 C        -0.025447         0.401660        -0.049129
 C         1.462362        -0.004313         0.127699
 C         1.977930        -0.052160         1.633803
 C         3.460376        -0.163103         1.277365
 O         4.042416         1.199483         1.123522
 C         3.174305         1.963547         0.229416
 C         2.545776         0.753361        -0.596590
 C         3.282357        -0.559160        -0.243317
 O         2.061307        -1.365368        -0.317395
 H         0.213191         1.511126         0.168462
 H        -0.508237         0.423620        -1.058435
 H        -0.661502        -0.066303         0.802938
 H         1.871968         0.780827         2.363184
 H         1.485059        -0.913591         2.139211
 H         4.343238        -0.585090         1.951640
 H         2.407122         2.659825         0.663498
 H         3.694249         2.655827        -0.447144
 H         2.429965         1.033421        -1.637389
 H         4.240640        -0.874344        -0.793209
