19
Iteration:   111
 C        -0.043477         0.369199         0.149950
 C         1.499500        -0.019998         0.121554
 C         2.082947        -0.688195         1.406342
 C         3.586687        -0.334850         0.987812
 O         3.913039         0.969435         1.477962
 C         3.047723         1.854126         0.879552
 C         2.529603         1.102960        -0.333485
 C         3.348644        -0.119851        -0.558744
 O         2.098533        -0.885608        -0.958995
 H        -0.358386         0.677090        -0.824235
 H        -0.673830        -0.479399         0.477913
 H        -0.138463         1.317927         0.814114
 H         1.692429        -0.336911         2.291098
 H         1.878908        -1.766116         1.343211
 H         4.371947        -1.096477         1.216900
 H         2.203043         2.103496         1.598234
 H         3.610210         2.854291         0.785809
 H         2.050888         1.645758        -1.057461
 H         4.268681        -0.155630        -1.196466
