19
Iteration:  1523
 C        -0.058419         0.099235        -0.139075
 C         1.389107         0.037782         0.199934
 C         1.964857         0.179831         1.646734
 C         3.394313        -0.145627         1.244954
 O         4.191785         1.075905         1.115571
 C         3.333326         1.928833         0.252991
 C         2.519304         0.815108        -0.515811
 C         3.265752        -0.461648        -0.321946
 O         2.011265        -1.233089        -0.247298
 H        -0.460234         1.083484        -0.361983
 H        -0.194324        -0.497748        -1.084470
 H        -0.673695        -0.242815         0.545363
 H         1.840190         1.064176         2.161292
 H         1.503671        -0.782196         2.081994
 H         3.825920        -0.868836         1.927487
 H         2.731803         2.481163         1.015293
 H         3.944291         2.577107        -0.459580
 H         2.150660         1.089741        -1.578985
 H         4.097956        -0.771515        -0.943495
