19
Iteration:  1492charge 0 multiplicity 1
 C        -0.156680         0.100991        -0.123436
 C         1.371933         0.058324         0.169426
 C         1.996209         0.086048         1.658425
 C         3.484348        -0.116346         1.268602
 O         4.179249         1.194164         1.154986
 C         3.316010         1.900091         0.219854
 C         2.645897         0.816046        -0.526237
 C         3.255023        -0.591193        -0.272147
 O         1.941300        -1.166141        -0.333033
 H        -0.294761         1.120498        -0.537113
 H        -0.368513        -0.670972        -0.825812
 H        -0.793838        -0.157648         0.744933
 H         1.774394         0.801833         2.390609
 H         1.602838        -0.848872         2.131666
 H         3.960692        -0.789796         1.975863
 H         2.701799         2.566869         0.787723
 H         3.868171         2.662170        -0.469686
 H         2.358380         1.066918        -1.640561
 H         4.021414        -1.180401        -0.837688
