19
Iteration:   996
 C        -0.153423         0.158316        -0.041457
 C         1.426939         0.076735         0.141499
 C         1.961568         0.024121         1.583927
 C         3.503590        -0.201097         1.232916
 O         4.049341         1.121359         1.252682
 C         3.366363         1.930878         0.186231
 C         2.539945         0.885773        -0.522870
 C         3.248153        -0.488404        -0.222640
 O         2.051804        -1.215879        -0.406997
 H        -0.411419         0.569848        -1.032492
 H        -0.481914        -0.880488         0.103833
 H        -0.536800         0.759765         0.726450
 H         1.911201         0.953582         2.190891
 H         1.491829        -0.885888         2.225696
 H         3.906698        -0.787086         1.954496
 H         2.735013         2.735412         0.631548
 H         4.179031         2.274625        -0.492932
 H         2.518634         0.952616        -1.633569
 H         4.059927        -0.753847        -0.891220
