19
Iteration:  2715
 C        -0.094926         0.202013        -0.008100
 C         1.413643         0.018968         0.224802
 C         1.998606         0.060290         1.648103
 C         3.505073        -0.064070         1.236488
 O         3.983182         1.215161         1.246380
 C         3.381007         1.880415         0.069989
 C         2.492726         0.733371        -0.603753
 C         3.320137        -0.511182        -0.204917
 O         1.987113        -1.256539        -0.362615
 H        -0.421659         1.106116         0.441444
 H        -0.092194         0.516789        -1.110261
 H        -0.737258        -0.680065         0.276859
 H         1.926174         0.984435         2.281719
 H         1.562666        -0.787361         2.022628
 H         4.205035        -0.710586         1.835998
 H         2.868698         2.700553         0.406005
 H         4.182820         2.135312        -0.566360
 H         2.395774         0.652120        -1.669260
 H         4.091913        -1.029703        -0.800158
