19
Iteration:  4981charge 0 multiplicity 1
 C         0.009816         0.323765        -0.015339
 C         1.463587        -0.027108         0.254272
 C         1.992949         0.116182         1.643328
 C         3.494187         0.032951         1.307349
 O         4.000583         1.294452         1.091119
 C         3.312290         1.848817        -0.131979
 C         2.593629         0.641123        -0.667600
 C         3.183782        -0.643099        -0.170735
 O         1.968975        -1.370889        -0.100306
 H        -0.525926        -0.439942        -0.459141
 H        -0.420059         0.560678         0.925263
 H        -0.021816         1.233846        -0.664855
 H         1.632493         1.103553         2.035517
 H         1.652505        -0.601816         2.346435
 H         4.181214        -0.439584         1.985699
 H         2.603473         2.676995         0.006792
 H         4.136865         2.319281        -0.738833
 H         2.344810         0.503767        -1.739841
 H         4.005283        -1.148837        -0.569885
