19
Iteration:  3719
 C         0.046895         0.398772        -0.097117
 C         1.417479        -0.049851         0.232028
 C         2.020042        -0.116170         1.593960
 C         3.502632        -0.185096         1.211539
 O         4.002654         1.198869         1.189900
 C         3.196175         1.920962         0.249996
 C         2.457483         0.867875        -0.497166
 C         3.276366        -0.508396        -0.326519
 O         2.037750        -1.298012        -0.316675
 H        -0.118257        -0.220024        -1.067376
 H        -0.774516         0.307798         0.632308
 H         0.215496         1.460362        -0.486032
 H         1.777399         0.647308         2.355112
 H         1.754526        -1.066851         2.090230
 H         4.250114        -0.835964         1.784156
 H         2.630017         2.690689         0.840081
 H         3.892470         2.509410        -0.365050
 H         2.282625         0.952482        -1.557395
 H         4.141279        -0.739457        -0.989097
