19
Iteration:  4484charge 0 multiplicity 1
 C        -0.021750         0.207862        -0.080654
 C         1.417167         0.068341         0.260377
 C         1.984308         0.019807         1.686852
 C         3.461584        -0.005536         1.308029
 O         4.066349         1.252474         1.094751
 C         3.413582         1.852332        -0.083919
 C         2.561177         0.753088        -0.605269
 C         3.254364        -0.542717        -0.109288
 O         1.921385        -1.294616        -0.220453
 H        -0.271655         1.253910         0.081688
 H        -0.269108         0.008162        -1.188590
 H        -0.671930        -0.466724         0.581802
 H         1.573049         0.741545         2.372043
 H         1.665102        -0.951174         2.052597
 H         4.035903        -0.591432         1.965686
 H         2.735429         2.600164         0.319772
 H         4.049832         2.312053        -0.882625
 H         2.098251         0.759908        -1.634949
 H         4.114843        -1.164339        -0.559609
