19
Iteration:  3528charge 0 multiplicity 1
 C        -0.109522         0.343874        -0.012518
 C         1.460142         0.074101         0.179405
 C         1.995210        -0.105894         1.633798
 C         3.493190        -0.030480         1.333502
 O         3.979842         1.190857         1.170550
 C         3.323943         1.942816         0.133709
 C         2.606995         0.734244        -0.601962
 C         3.254596        -0.589585        -0.205717
 O         2.014399        -1.258822        -0.404060
 H        -0.427166         1.341492        -0.274577
 H        -0.330770        -0.444428        -0.775506
 H        -0.664385         0.191537         0.953403
 H         1.535282         0.518997         2.350772
 H         1.794732        -1.117454         1.931098
 H         4.154205        -0.705587         1.979384
 H         2.631036         2.701397         0.543583
 H         4.143394         2.405840        -0.478185
 H         2.435780         0.823482        -1.711038
 H         4.231043        -0.992744        -0.701848
