19
Iteration:  2901
 C         0.031806         0.327348         0.041290
 C         1.471062         0.046716         0.106219
 C         1.928824        -0.050327         1.597500
 C         3.459900        -0.039259         1.316433
 O         4.034963         1.273300         1.112827
 C         3.230959         1.950037         0.122407
 C         2.639574         0.731622        -0.581107
 C         3.263513        -0.655157        -0.130914
 O         1.999544        -1.326979        -0.338554
 H        -0.233391         1.066338         0.735578
 H        -0.268285         0.837747        -0.926565
 H        -0.656140        -0.482772         0.153088
 H         1.731790         0.839176         2.297227
 H         1.522775        -0.980135         1.897164
 H         4.106288        -0.657501         1.941138
 H         2.415330         2.589874         0.631041
 H         3.914723         2.392476        -0.612557
 H         2.421961         0.754644        -1.687342
 H         3.895985        -1.171823        -0.873606
