19
Iteration:  1764
 C         0.048884         0.453488         0.019669
 C         1.486257        -0.015331         0.200594
 C         2.000238        -0.152669         1.623949
 C         3.508533        -0.076238         1.216943
 O         3.861668         1.228236         1.263459
 C         3.250256         1.872523         0.120483
 C         2.496553         0.738565        -0.625233
 C         3.330787        -0.538216        -0.301435
 O         2.060077        -1.312109        -0.304569
 H         0.224574         1.616345        -0.064323
 H        -0.283003         0.234707        -1.049006
 H        -0.706527         0.261900         0.828020
 H         1.802677         0.713385         2.192566
 H         1.539343        -1.103984         2.034437
 H         4.250024        -0.639299         1.766289
 H         2.569189         2.632165         0.485145
 H         3.912753         2.455779        -0.441345
 H         2.095506         0.960571        -1.696860
 H         4.094033        -1.120366        -0.846129
