19
Iteration:  1453charge 0 multiplicity 1
 C        -0.013878         0.339687         0.035371
 C         1.453822        -0.011509         0.170424
 C         1.938316        -0.100011         1.619542
 C         3.407133        -0.086449         1.245823
 O         3.904052         1.228680         1.253167
 C         3.373376         1.923090         0.091004
 C         2.534059         0.723789        -0.583766
 C         3.356321        -0.550835        -0.343395
 O         2.070467        -1.272733        -0.300332
 H        -0.047587         1.453847         0.023516
 H        -0.574924         0.123301        -0.876509
 H        -0.761543         0.159325         0.927651
 H         1.946513         0.895081         2.279172
 H         1.591975        -1.033095         2.008814
 H         4.145779        -0.611187         1.908596
 H         2.723269         2.854310         0.303578
 H         4.180599         2.237711        -0.527722
 H         2.144815         0.890968        -1.551785
 H         4.174213        -1.062557        -0.952476
