19
Iteration:  3375
 C        -0.053413         0.311331        -0.113028
 C         1.465988         0.010997         0.264045
 C         1.980143        -0.056544         1.704435
 C         3.471794        -0.073972         1.316762
 O         4.013667         1.275147         1.132605
 C         3.343739         1.810620         0.033627
 C         2.604444         0.699594        -0.621429
 C         3.279461        -0.524850        -0.177430
 O         1.930704        -1.213106        -0.288331
 H        -0.901713        -0.297218         0.331653
 H        -0.193993         1.330489         0.199424
 H        -0.052729         0.263082        -1.258243
 H         1.790700         0.738521         2.388317
 H         1.689539        -1.070516         2.049420
 H         4.227570        -0.641388         1.825532
 H         2.580332         2.560031         0.343492
 H         4.013950         2.364207        -0.645611
 H         2.176321         0.805052        -1.536473
 H         4.159206        -1.106670        -0.480773
