19
Iteration:  2605charge 0 multiplicity 1
 C         0.000934         0.421394         0.002458
 C         1.436526        -0.001151         0.233511
 C         1.988107        -0.110714         1.685102
 C         3.524036        -0.073359         1.277344
 O         3.916054         1.280710         1.175983
 C         3.252446         1.892723         0.067749
 C         2.604021         0.696523        -0.643450
 C         3.347728        -0.606569        -0.247253
 O         2.004110        -1.256331        -0.329524
 H        -0.282857         1.419006        -0.120097
 H        -0.305592        -0.004438        -0.971454
 H        -0.719798        -0.014277         0.771295
 H         1.623511         0.651757         2.424149
 H         1.752464        -1.024218         2.093071
 H         4.288648        -0.588376         1.868748
 H         2.467438         2.726330         0.265857
 H         4.102000         2.321725        -0.405959
 H         2.191552         0.830878        -1.571888
 H         4.021519        -1.271531        -0.796049
