19
Iteration:  4723charge 0 multiplicity 1
 C        -0.059335         0.250216         0.007916
 C         1.437709         0.041937         0.198566
 C         1.973417         0.087920         1.650249
 C         3.485897         0.003865         1.341875
 O         4.076390         1.290360         1.071404
 C         3.412935         1.826158        -0.124782
 C         2.521160         0.657463        -0.701983
 C         3.302268        -0.613484        -0.088590
 O         1.907275        -1.296963        -0.163258
 H        -0.453983        -0.644492        -0.366185
 H        -0.609652         0.520535         0.973987
 H        -0.301301         1.027550        -0.735360
 H         1.647618         1.009842         2.160727
 H         1.454548        -0.748376         2.217778
 H         4.106612        -0.491602         1.979930
 H         2.650029         2.534464         0.305996
 H         4.154922         2.334672        -0.685608
 H         2.308523         0.742628        -1.747374
 H         4.123878        -1.166354        -0.426632
