19
Iteration:  2366charge 0 multiplicity 1
 C        -0.168853         0.147183        -0.099617
 C         1.344888         0.046777         0.167047
 C         1.966668         0.100178         1.631282
 C         3.540888        -0.098462         1.215675
 O         4.151992         1.130778         1.099926
 C         3.310001         1.909111         0.251707
 C         2.663329         0.814302        -0.637325
 C         3.247267        -0.518827        -0.211966
 O         1.984038        -1.238077        -0.255531
 H        -0.486792         1.148869         0.079896
 H        -0.399994        -0.080378        -1.180922
 H        -0.728744        -0.578518         0.623863
 H         1.601336         0.897575         2.440382
 H         1.614440        -0.767109         2.113159
 H         4.060544        -0.647642         2.023038
 H         2.530829         2.560917         0.902136
 H         4.057844         2.489049        -0.281729
 H         2.418980         1.026972        -1.620309
 H         4.018300        -1.074460        -0.810107
