19
Iteration:  3656
 C        -0.090518         0.134910         0.052207
 C         1.425408         0.074982         0.128502
 C         1.948272         0.033482         1.659862
 C         3.427090        -0.209308         1.236749
 O         4.017604         1.194763         1.275969
 C         3.407893         1.900383         0.254664
 C         2.583591         0.853954        -0.663750
 C         3.314671        -0.483071        -0.331887
 O         2.018047        -1.221553        -0.402128
 H        -0.315959        -0.247201        -0.963814
 H        -0.657932        -0.416345         0.732012
 H        -0.499308         1.171112         0.025090
 H         1.846763         1.026989         2.066606
 H         1.394290        -0.890711         2.178509
 H         4.000572        -1.078659         1.800278
 H         2.667013         2.639516         0.622799
 H         4.035289         2.544113        -0.397327
 H         2.393522         1.293250        -1.653448
 H         4.078645        -1.213550        -0.821581
