19
Iteration:  2979charge 0 multiplicity 1
 C        -0.106956         0.095521        -0.065499
 C         1.361554         0.069968         0.208812
 C         1.973677         0.028373         1.668151
 C         3.469458        -0.134866         1.345669
 O         4.108493         1.178752         1.144644
 C         3.426117         1.908839         0.133504
 C         2.561893         0.864686        -0.586916
 C         3.198270        -0.540825        -0.202751
 O         2.039625        -1.186058        -0.375929
 H        -0.542531         0.905719        -0.646973
 H        -0.348041        -0.676982        -0.784682
 H        -0.752898        -0.082733         0.755425
 H         1.702503         0.896334         2.297921
 H         1.518513        -0.858180         2.145168
 H         3.954308        -0.768325         2.028170
 H         2.815871         2.772235         0.494146
 H         4.001939         2.551071        -0.529200
 H         2.352311         0.858214        -1.758809
 H         4.033300        -0.915629        -0.705024
