19
Iteration:  3415charge 0 multiplicity 1
 C        -0.019405         0.256323        -0.012721
 C         1.382179         0.026647         0.197992
 C         1.944774         0.024759         1.624523
 C         3.472051        -0.105339         1.232755
 O         3.968729         1.195125         1.206581
 C         3.382969         1.829666         0.078332
 C         2.552540         0.772998        -0.654834
 C         3.363750        -0.518174        -0.222265
 O         1.985005        -1.260143        -0.241928
 H        -0.726335         0.259233         0.822513
 H         0.006149         1.182684        -0.553072
 H        -0.543666        -0.398108        -0.657123
 H         1.717615         0.999575         2.038805
 H         1.421238        -0.719223         2.236608
 H         4.109890        -0.743762         1.812891
 H         2.742334         2.601214         0.517032
 H         4.222397         2.362237        -0.450632
 H         2.362454         1.041879        -1.731063
 H         4.186933        -0.930511        -0.785329
