19
Iteration:  3819charge 0 multiplicity 1
 C        -0.077054         0.142555        -0.132996
 C         1.397513         0.069455         0.184046
 C         2.041579        -0.036642         1.752818
 C         3.538210        -0.121222         1.258268
 O         4.031732         1.225844         1.271660
 C         3.386264         1.894345         0.148410
 C         2.556070         0.872228        -0.577605
 C         3.200805        -0.526755        -0.317341
 O         1.928723        -1.216810        -0.365526
 H        -0.255749         1.088218        -0.720938
 H        -0.426787        -0.730167        -0.762084
 H        -0.463377         0.126616         0.961730
 H         1.909681         0.759521         2.440676
 H         1.608289        -1.020616         2.124973
 H         4.039751        -0.920529         1.902479
 H         2.913798         2.827170         0.559676
 H         4.216567         2.305470        -0.432586
 H         2.372885         0.912004        -1.643112
 H         3.899956        -0.952354        -1.107075
