19
Iteration:   583
 C        -0.076375         0.232096         0.097452
 C         1.445979         0.049267         0.101906
 C         2.007815        -0.386489         1.487495
 C         3.503792        -0.238376         1.173793
 O         3.930763         1.101158         1.442080
 C         3.333226         2.032276         0.415504
 C         2.510207         0.935704        -0.497294
 C         3.296464        -0.417325        -0.381646
 O         2.042622        -1.051671        -0.633072
 H        -0.172972         1.361730         0.256247
 H        -0.499574         0.013437        -0.910615
 H        -0.399447        -0.451350         0.822517
 H         1.729048         0.459155         2.138885
 H         1.742191        -1.506115         1.876610
 H         4.207068        -0.934795         1.721878
 H         2.626038         2.695404         0.915340
 H         4.108303         2.507206        -0.259625
 H         2.462685         1.286357        -1.569953
 H         4.071911        -0.643390        -1.098310
