19
Iteration:  4606
 C        -0.077836        -0.002038        -0.016725
 C         1.337996         0.060718         0.210841
 C         1.947847         0.289096         1.629890
 C         3.410849        -0.019501         1.264297
 O         4.133382         1.170099         1.154481
 C         3.531575         1.883300        -0.000487
 C         2.546201         0.811926        -0.611433
 C         3.161827        -0.587580        -0.266621
 O         1.950900        -1.272119        -0.147371
 H        -0.597707        -0.316673         0.898536
 H        -0.486793         0.950813        -0.505988
 H        -0.189614        -0.790719        -0.693954
 H         1.829333         1.221919         2.063476
 H         1.664245        -0.457716         2.384022
 H         3.986522        -0.853266         1.694224
 H         3.045783         2.797017         0.292810
 H         4.275115         2.023984        -0.807293
 H         2.524278         0.923056        -1.656654
 H         4.001901        -1.031858        -0.687092
