19
Iteration:  2690
 C        -0.099157         0.046265        -0.006117
 C         1.405393         0.083165         0.153656
 C         1.878989         0.119315         1.603422
 C         3.440170        -0.092912         1.299662
 O         4.119641         1.139090         1.146350
 C         3.415873         1.935927         0.150894
 C         2.621975         0.855140        -0.632311
 C         3.236203        -0.575426        -0.277368
 O         1.989458        -1.220650        -0.243960
 H        -0.538294         0.781522         0.690179
 H        -0.301270         0.370517        -1.002509
 H        -0.353296        -1.065334         0.219627
 H         1.873752         1.072194         2.101023
 H         1.331802        -0.742815         2.098874
 H         4.035135        -0.576964         2.056889
 H         2.643401         2.626230         0.537270
 H         4.217540         2.456163        -0.415611
 H         2.399725         1.106910        -1.620262
 H         3.862226        -1.118683        -0.999170
