19
Iteration:  4367charge 0 multiplicity 1
 C         0.008796         0.371054        -0.092924
 C         1.454925        -0.001389         0.279199
 C         2.069719        -0.098100         1.697328
 C         3.500560        -0.061719         1.225495
 O         3.936592         1.276230         1.177150
 C         3.289662         1.873009         0.004757
 C         2.505526         0.719382        -0.607935
 C         3.254174        -0.566251        -0.258983
 O         1.981023        -1.282305        -0.191161
 H        -0.163295        -0.129577        -1.042360
 H        -0.771121         0.047453         0.665616
 H        -0.040333         1.431471        -0.206216
 H         1.932240         0.841701         2.250404
 H         1.615464        -1.003336         2.261615
 H         4.241481        -0.604520         1.809600
 H         2.853802         2.859317         0.330913
 H         4.110797         2.123752        -0.685901
 H         2.204339         0.725633        -1.670030
 H         4.035291        -0.965840        -0.839292
