19
Iteration:  4672
 C         0.042420         0.435115        -0.120594
 C         1.451316        -0.018204         0.267096
 C         2.020752         0.115134         1.663271
 C         3.511911        -0.068141         1.203266
 O         3.998359         1.298329         1.144530
 C         3.175731         1.831775        -0.063226
 C         2.551905         0.580377        -0.614147
 C         3.258600        -0.635566        -0.206261
 O         2.014269        -1.329823        -0.060900
 H        -0.722329        -0.345174        -0.195624
 H        -0.333002         1.139217         0.656024
 H         0.056876         0.928148        -1.053173
 H         1.840144         1.050293         2.126129
 H         1.544096        -0.660516         2.296391
 H         4.178025        -0.696012         1.918724
 H         2.389889         2.555287         0.179818
 H         4.035820         2.193761        -0.677893
 H         2.375039         0.619324        -1.671641
 H         3.988747        -1.108474        -0.853789
