19
Iteration:  4097
 C        -0.136558         0.105422         0.043800
 C         1.359811        -0.028525         0.143093
 C         1.911856         0.064037         1.608411
 C         3.440713        -0.128155         1.298330
 O         4.130218         1.113326         1.208059
 C         3.399419         1.914911         0.164122
 C         2.621865         0.932645        -0.613269
 C         3.234356        -0.473016        -0.253916
 O         2.036111        -1.202712        -0.411716
 H        -0.479825         0.953067         0.734622
 H        -0.639172         0.108799        -1.001045
 H        -0.326180        -0.838654         0.610805
 H         1.670044         1.039133         1.994440
 H         1.401768        -0.551871         2.335219
 H         4.127818        -0.861836         1.858772
 H         2.751631         2.606948         0.740348
 H         4.171425         2.372187        -0.489232
 H         2.394548         0.946653        -1.672177
 H         4.000331        -0.929251        -0.938645
