19
Iteration:   838
 C        -0.103376         0.129248        -0.125029
 C         1.350526         0.038896         0.217165
 C         1.950169        -0.082714         1.659849
 C         3.509023        -0.180315         1.196424
 O         4.091527         1.090733         1.285043
 C         3.373875         1.905150         0.298977
 C         2.523985         0.937243        -0.492323
 C         3.262140        -0.393980        -0.365793
 O         2.038308        -1.149128        -0.459437
 H        -0.749544         0.568625         0.583906
 H        -0.246326         0.575736        -1.095897
 H        -0.579468        -0.868380        -0.201557
 H         1.954599         0.794632         2.382661
 H         1.567998        -0.911777         2.203875
 H         4.071658        -1.035516         1.634396
 H         2.629868         2.607348         0.813202
 H         4.144659         2.500306        -0.263384
 H         2.246886         1.271014        -1.450293
 H         4.195738        -0.746099        -0.882789
