19
Iteration:   550charge 0 multiplicity 1
 C        -0.106313         0.097617        -0.050986
 C         1.385395         0.130236         0.168362
 C         1.945526        -0.257505         1.578340
 C         3.510962        -0.238299         1.122358
 O         4.135245         1.006082         1.311349
 C         3.298357         1.951050         0.530024
 C         2.520089         1.015168        -0.400047
 C         3.260225        -0.368364        -0.460623
 O         2.061753        -1.042034        -0.607431
 H        -0.566591         0.869775        -0.741935
 H        -0.137241        -0.862496        -0.596818
 H        -0.704529         0.172043         0.819333
 H         1.719754         0.633800         2.201200
 H         1.504820        -1.202566         2.204482
 H         3.991799        -1.022467         1.751160
 H         2.637988         2.516974         1.217026
 H         4.002953         2.757699         0.168854
 H         2.250829         1.359390        -1.415891
 H         4.091003        -0.540998        -1.121342
