19
Iteration:   335charge 0 multiplicity 1
 C        -0.130370         0.125546        -0.005488
 C         1.412959         0.044058         0.211860
 C         2.014324        -0.397865         1.531966
 C         3.513573        -0.331172         1.063458
 O         4.112063         1.001485         1.439802
 C         3.232069         1.914889         0.660997
 C         2.583237         1.043546        -0.370329
 C         3.219341        -0.192046        -0.504967
 O         2.041330        -0.927201        -0.800622
 H        -0.442556         1.012622        -0.657668
 H        -0.291103        -0.813567        -0.530341
 H        -0.560896         0.066837         0.912859
 H         1.628341         0.210082         2.365065
 H         1.817712        -1.393449         1.649423
 H         4.257085        -1.052697         1.468094
 H         2.487722         2.391333         1.422138
 H         3.877860         2.713758         0.283509
 H         2.288717         1.588150        -1.418214
 H         4.051971        -0.326670        -1.173617
