19
Iteration:  1721charge 0 multiplicity 1
 C         0.002000         0.224942        -0.003602
 C         1.395116         0.057704         0.228000
 C         1.961221        -0.108876         1.627906
 C         3.466370        -0.098956         1.225374
 O         3.988671         1.234361         1.231363
 C         3.373803         1.860875         0.127200
 C         2.579329         0.800617        -0.634903
 C         3.271367        -0.539234        -0.205963
 O         1.995552        -1.155202        -0.392761
 H        -0.304169         1.300295        -0.234150
 H        -0.500920        -0.440323        -0.732044
 H        -0.501230        -0.043159         0.946309
 H         1.648830         0.580556         2.391269
 H         1.646397        -1.124004         2.012196
 H         4.147992        -0.711958         1.810408
 H         2.794270         2.726013         0.454223
 H         4.126663         2.310323        -0.442198
 H         2.145089         0.863620        -1.739523
 H         4.165481        -1.024577        -0.647685
