19
Iteration:  3048
 C        -0.025019         0.270595        -0.133069
 C         1.468156        -0.007212         0.235720
 C         1.971077        -0.076835         1.649015
 C         3.510895        -0.156354         1.303329
 O         4.023663         1.228051         1.122053
 C         3.272457         1.882096         0.126116
 C         2.520203         0.764333        -0.517305
 C         3.254205        -0.536458        -0.197688
 O         2.021591        -1.169227        -0.306538
 H        -0.158633         1.218679        -0.735037
 H        -0.493209        -0.369158        -0.838601
 H        -0.725811         0.493781         0.699488
 H         1.865177         0.792343         2.207776
 H         1.779938        -1.074593         2.133085
 H         4.294254        -0.758529         1.893013
 H         2.484900         2.610201         0.504301
 H         3.805878         2.618269        -0.455277
 H         2.401340         0.889219        -1.608269
 H         4.066099        -0.982551        -0.831904
