19
Iteration:   198charge 0 multiplicity 1
 C        -0.102443         0.032992        -0.080348
 C         1.386649         0.034796         0.211895
 C         2.007460        -0.469427         1.522683
 C         3.470380        -0.348162         1.038617
 O         4.147892         0.877084         1.415653
 C         3.290436         1.923231         0.840920
 C         2.464672         1.195370        -0.253878
 C         3.229847        -0.111905        -0.595624
 O         2.100319        -0.835951        -0.831719
 H        -0.754254         0.075510         0.762103
 H        -0.497853         0.811490        -0.764939
 H        -0.248040        -0.962485        -0.664369
 H         1.774785         0.238761         2.305788
 H         1.673653        -1.497741         1.818810
 H         4.225294        -1.121585         1.376226
 H         2.655721         2.501305         1.508218
 H         3.914488         2.729034         0.234960
 H         2.089683         1.695107        -1.055561
 H         3.945613        -0.141848        -1.476159
