19
Iteration:  2574
 C         0.031339         0.406447         0.096931
 C         1.479818        -0.026791         0.132158
 C         1.923636        -0.070244         1.629461
 C         3.502266        -0.104313         1.347886
 O         3.944955         1.296109         1.203727
 C         3.253262         1.871690         0.042858
 C         2.562431         0.733136        -0.670971
 C         3.303329        -0.572304        -0.259313
 O         2.039736        -1.299947        -0.334197
 H        -0.081373         1.437449         0.074603
 H        -0.443911         0.106529        -0.917540
 H        -0.476107        -0.107278         0.949642
 H         1.610353         0.778925         2.385534
 H         1.520462        -0.987857         1.927103
 H         4.159970        -0.720778         1.991090
 H         2.535487         2.782201         0.397715
 H         4.138719         2.229696        -0.430487
 H         2.261792         0.861929        -1.681105
 H         4.053644        -1.109763        -0.832416
