19
Iteration:  2639charge 0 multiplicity 1
 C        -0.080659         0.219046        -0.131896
 C         1.423368         0.000391         0.256247
 C         1.974330         0.063425         1.670805
 C         3.483053        -0.122791         1.177782
 O         4.072172         1.188706         1.154199
 C         3.338067         1.925859         0.169133
 C         2.519531         0.789155        -0.583277
 C         3.281624        -0.530048        -0.240275
 O         1.991616        -1.270379        -0.229496
 H        -0.342545         1.186691         0.157265
 H        -0.107567        -0.059926        -1.241075
 H        -0.692564        -0.576608         0.356026
 H         1.679253         1.094959         2.071581
 H         1.710349        -0.756167         2.240529
 H         4.199935        -0.738461         1.762700
 H         2.679307         2.807920         0.565190
 H         4.028766         2.323484        -0.541505
 H         2.171486         0.969387        -1.583959
 H         4.088485        -1.024685        -0.792568
