19
Iteration:  3731charge 0 multiplicity 1
 C         0.023735         0.321598        -0.115862
 C         1.474902         0.004770         0.194906
 C         2.068664        -0.098072         1.654092
 C         3.490009        -0.127572         1.158755
 O         4.026187         1.145721         1.230033
 C         3.220037         1.871418         0.285944
 C         2.488720         0.846565        -0.639078
 C         3.283625        -0.452789        -0.254262
 O         1.981992        -1.266417        -0.320825
 H        -0.378810        -0.141329        -1.112763
 H        -0.716776        -0.049956         0.622991
 H        -0.215000         1.473508        -0.156339
 H         1.992875         0.843182         2.180056
 H         1.604004        -1.072649         2.089412
 H         4.202224        -0.737431         1.893998
 H         2.405409         2.465178         0.798966
 H         3.831157         2.510164        -0.356684
 H         2.134002         1.362708        -1.536976
 H         4.123251        -1.056197        -0.777053
