19
Iteration:  4446charge 0 multiplicity 1
 C        -0.132453         0.024826        -0.046587
 C         1.425676        -0.007504         0.253223
 C         1.975158         0.249050         1.617702
 C         3.427207        -0.052430         1.222105
 O         4.127491         1.152752         1.175097
 C         3.468558         1.851874         0.012749
 C         2.543440         0.831884        -0.642457
 C         3.219702        -0.550273        -0.205379
 O         1.950991        -1.230170        -0.205857
 H        -0.616382         0.853974        -0.629391
 H        -0.308807        -0.861187        -0.585088
 H        -0.663787         0.016801         0.875177
 H         1.837633         1.318329         2.016438
 H         1.513022        -0.525897         2.320346
 H         4.014509        -0.792359         1.857728
 H         2.847392         2.604330         0.556631
 H         4.288093         2.328361        -0.531431
 H         2.320438         1.097387        -1.639285
 H         4.092856        -0.909172        -0.676914
