19
Iteration:  2433
 C        -0.053312         0.430976         0.021300
 C         1.448213         0.089491         0.221961
 C         1.982201        -0.155906         1.614330
 C         3.535509        -0.110715         1.272803
 O         3.918853         1.269681         1.226217
 C         3.269505         1.858738         0.024205
 C         2.599591         0.711859        -0.680049
 C         3.349548        -0.550108        -0.170892
 O         2.008174        -1.295582        -0.303075
 H        -0.278204         1.478901         0.149117
 H        -0.477115         0.122069        -1.031318
 H        -0.754369        -0.108972         0.743681
 H         1.624887         0.637898         2.443759
 H         1.685634        -1.153189         1.886402
 H         4.228300        -0.710911         1.848887
 H         2.524049         2.755574         0.274237
 H         4.108856         2.261111        -0.550681
 H         2.497423         0.699963        -1.707251
 H         4.139107        -0.798652        -0.860778
