19
Iteration:  2374
 C        -0.147983         0.173764        -0.118456
 C         1.401549         0.067979         0.182129
 C         2.012620         0.076803         1.709666
 C         3.456367        -0.113414         1.245093
 O         4.130554         1.180514         1.137274
 C         3.260546         1.861324         0.214072
 C         2.574806         0.831428        -0.639068
 C         3.260944        -0.617005        -0.230903
 O         2.030044        -1.205285        -0.284715
 H        -0.313261         1.270164        -0.027918
 H        -0.356779        -0.106839        -1.085860
 H        -0.759946        -0.267687         0.652239
 H         1.825003         0.882526         2.404060
 H         1.666846        -0.904728         2.160220
 H         4.142411        -0.753942         1.853902
 H         2.582612         2.521720         0.740576
 H         3.917153         2.446970        -0.422578
 H         2.570791         1.121872        -1.781804
 H         4.038860        -1.122189        -0.877956
