19
Iteration:  1496
 C        -0.134799         0.081099        -0.150214
 C         1.357287         0.048992         0.182766
 C         1.986627         0.094254         1.657182
 C         3.489358        -0.141516         1.249045
 O         4.206351         1.200075         1.140286
 C         3.310858         1.889832         0.231455
 C         2.646255         0.862954        -0.535533
 C         3.221629        -0.609991        -0.252741
 O         1.955631        -1.160690        -0.316788
 H        -0.361244         1.124333        -0.516718
 H        -0.448992        -0.704547        -0.882996
 H        -0.890170        -0.159275         0.837555
 H         1.680830         0.967501         2.390456
 H         1.648532        -0.852888         2.045106
 H         4.001406        -0.819319         1.971562
 H         2.657489         2.592230         0.818398
 H         3.811549         2.583606        -0.436661
 H         2.502473         1.180584        -1.546882
 H         3.994340        -1.184316        -0.835133
