19
Iteration:  2545charge 0 multiplicity 1
 C        -0.104291         0.231970        -0.063198
 C         1.417165        -0.002299         0.176320
 C         1.987839         0.066902         1.665090
 C         3.539822        -0.193409         1.263759
 O         4.050323         1.233264         1.161893
 C         3.312238         1.945140         0.110315
 C         2.557135         0.801906        -0.594889
 C         3.223881        -0.524298        -0.203385
 O         2.004130        -1.293532        -0.285065
 H        -0.272950         1.297947         0.379526
 H        -0.261014         0.043028        -1.145438
 H        -0.708029        -0.532933         0.379482
 H         2.075080         0.976725         2.244194
 H         1.433727        -0.812229         2.177709
 H         4.094901        -0.936669         1.851314
 H         2.723855         2.732853         0.480220
 H         4.170899         2.471919        -0.410541
 H         2.390394         0.778209        -1.739327
 H         3.982053        -0.904140        -0.885933
