19
Iteration:   306
 C        -0.002799         0.278330         0.063871
 C         1.465371        -0.055201         0.139808
 C         2.108498        -0.508081         1.431350
 C         3.541073        -0.370705         1.046124
 O         3.878615         0.953205         1.485689
 C         3.196315         2.009482         0.596840
 C         2.478090         1.135951        -0.363463
 C         3.280220        -0.214831        -0.461487
 O         2.064067        -0.960894        -0.772471
 H        -0.345952         0.571378        -0.930574
 H        -0.662117        -0.517634         0.512490
 H         0.017579         1.134094         0.856224
 H         1.704386        -0.012766         2.392597
 H         1.961315        -1.669639         1.443054
 H         4.357731        -1.012175         1.487405
 H         2.512213         2.498732         1.292172
 H         3.969021         2.680375         0.153412
 H         2.146656         1.582343        -1.274003
 H         4.157680        -0.367285        -1.184623
