19
Iteration:  2128
 C         0.019032         0.292051        -0.003696
 C         1.436724         0.004750         0.155351
 C         1.970365        -0.064881         1.635701
 C         3.440540        -0.096982         1.333727
 O         4.007390         1.274945         1.177653
 C         3.318858         1.829976         0.125081
 C         2.577741         0.828448        -0.583580
 C         3.316385        -0.585620        -0.221089
 O         1.940539        -1.237603        -0.396403
 H        -0.139341         1.296084         0.060605
 H        -0.305977        -0.100566        -0.967540
 H        -0.530320        -0.297205         0.774686
 H         1.635608         0.777658         2.347582
 H         1.719558        -0.965843         2.081090
 H         4.046655        -0.747141         2.082329
 H         2.575299         2.534051         0.526933
 H         3.923650         2.473154        -0.622531
 H         2.547078         1.085764        -1.583480
 H         4.109578        -1.082538        -0.893773
