19
Iteration:  4406charge 0 multiplicity 1
 C        -0.095251         0.229223        -0.034622
 C         1.370900         0.000036         0.160483
 C         1.968061         0.088314         1.651737
 C         3.487128        -0.023697         1.289525
 O         4.137768         1.159224         1.070759
 C         3.294682         1.890748         0.095817
 C         2.608640         0.739387        -0.644767
 C         3.280378        -0.537519        -0.154124
 O         1.966019        -1.256406        -0.244908
 H        -0.375880         0.613826        -1.019886
 H        -0.484490        -0.821225         0.094240
 H        -0.624162         0.751185         0.861504
 H         1.646576         1.078912         2.067815
 H         1.800765        -0.682646         2.383822
 H         4.089798        -0.664294         1.979756
 H         2.578795         2.576108         0.550531
 H         3.959318         2.561637        -0.514829
 H         2.369022         0.815617        -1.763754
 H         4.115480        -1.250357        -0.618435
