19
Iteration:  2930charge 0 multiplicity 1
 C        -0.012951         0.344763        -0.095509
 C         1.426966         0.012942         0.183483
 C         2.010430         0.020812         1.722564
 C         3.491137        -0.064336         1.231502
 O         3.974876         1.194501         1.171144
 C         3.190932         1.832917         0.136006
 C         2.616925         0.723681        -0.618576
 C         3.327429        -0.562141        -0.228366
 O         2.025038        -1.275259        -0.276684
 H        -0.140252         1.408453         0.182723
 H        -0.241475         0.383935        -1.184265
 H        -0.806174        -0.218261         0.481640
 H         1.909989         0.912148         2.382803
 H         1.571146        -0.884107         2.214090
 H         4.244181        -0.776888         1.698654
 H         2.454856         2.549363         0.530769
 H         3.812214         2.537299        -0.464756
 H         2.278058         0.850043        -1.577113
 H         4.016967        -1.116212        -0.940256
