19
Iteration:  2761charge 0 multiplicity 1
 C        -0.040687         0.404571        -0.053596
 C         1.446768         0.035567         0.262227
 C         2.053145        -0.115303         1.602204
 C         3.563042        -0.134029         1.318179
 O         3.920523         1.244545         1.160685
 C         3.195287         1.883129         0.061783
 C         2.576566         0.743727        -0.623582
 C         3.273573        -0.571620        -0.202906
 O         2.043855        -1.261000        -0.268322
 H        -0.147253         1.539309        -0.159459
 H        -0.308546         0.104938        -1.133377
 H        -0.753992         0.013610         0.666656
 H         1.803661         0.759729         2.225827
 H         1.846275        -1.110251         1.932122
 H         4.118337        -0.713960         2.103130
 H         2.505475         2.522032         0.493609
 H         3.950773         2.370691        -0.498476
 H         2.389865         0.850974        -1.785646
 H         4.058490        -0.966105        -0.882472
