19
Iteration:   703charge 0 multiplicity 1
 C        -0.156095         0.007236        -0.100268
 C         1.402950         0.039815         0.140788
 C         1.937154        -0.119647         1.612450
 C         3.488541        -0.197528         1.215173
 O         4.138837         1.062313         1.355491
 C         3.379081         1.898049         0.368624
 C         2.540128         1.066516        -0.495610
 C         3.286501        -0.378297        -0.372181
 O         1.964256        -1.086712        -0.552178
 H        -0.424562        -1.024451        -0.589780
 H        -0.639263         0.025937         0.962183
 H        -0.264376         0.938045        -0.598686
 H         1.818939         0.692759         2.273274
 H         1.539764        -1.070499         2.140573
 H         4.076807        -0.990836         1.683689
 H         2.926693         2.602147         1.162641
 H         4.073978         2.618327        -0.098891
 H         2.283570         1.381956        -1.568030
 H         4.126971        -0.511673        -1.047184
