19
Iteration:  2200charge 0 multiplicity 1
 C        -0.145519         0.104182        -0.125394
 C         1.424751         0.072369         0.200340
 C         2.034424         0.064150         1.657755
 C         3.436612        -0.150453         1.268554
 O         4.147950         1.141210         1.112971
 C         3.360680         1.893892         0.186394
 C         2.592117         0.826019        -0.496594
 C         3.211037        -0.483362        -0.179613
 O         1.972859        -1.207552        -0.359005
 H        -0.273084         1.129806        -0.718721
 H        -0.249984        -0.590965        -0.910347
 H        -0.932206        -0.129089         0.635041
 H         1.793170         0.956310         2.217999
 H         1.532337        -0.760296         2.293331
 H         3.980500        -0.853072         1.855838
 H         2.658937         2.668465         0.647840
 H         3.908909         2.540348        -0.456481
 H         2.241044         1.065717        -1.565397
 H         4.150605        -0.826642        -0.593614
