19
Iteration:  1089charge 0 multiplicity 1
 C         0.043927         0.411629        -0.118552
 C         1.415628         0.024484         0.219528
 C         1.992851        -0.108596         1.637646
 C         3.462691        -0.159583         1.204608
 O         3.988463         1.238152         1.149796
 C         3.186575         1.955653         0.216431
 C         2.577294         0.805045        -0.571398
 C         3.362925        -0.621356        -0.237487
 O         1.987966        -1.290614        -0.306637
 H        -0.007888         1.502287        -0.302507
 H        -0.192096        -0.200630        -0.953499
 H        -0.653199         0.062449         0.804117
 H         1.756528         0.783134         2.326410
 H         1.653420        -1.071609         2.182992
 H         4.185336        -0.668511         1.908474
 H         2.389642         2.533256         0.697595
 H         3.860643         2.471042        -0.431878
 H         2.433921         0.976186        -1.631256
 H         4.152964        -1.174745        -0.696258
