19
Iteration:  1035
 C        -0.078484        -0.027679        -0.067304
 C         1.339284         0.112839         0.187860
 C         1.937623         0.039556         1.625339
 C         3.402153        -0.161130         1.309298
 O         4.099349         1.079353         1.213070
 C         3.492398         1.975438         0.133464
 C         2.619578         0.944069        -0.557658
 C         3.193595        -0.485841        -0.224377
 O         1.977729        -1.164248        -0.392194
 H        -0.563881         0.725118        -0.702061
 H        -0.384802        -0.917749        -0.562736
 H        -0.620505         0.194441         0.971208
 H         1.641988         0.942077         2.193123
 H         1.537768        -0.804008         2.049382
 H         4.165580        -0.819015         1.857082
 H         2.919820         2.726526         0.665521
 H         4.284859         2.522914        -0.395984
 H         2.616302         0.949165        -1.655118
 H         4.002032        -0.863941        -0.827998
