19
Iteration:  3223
 C         0.030489         0.337944        -0.048502
 C         1.444245         0.064376         0.124085
 C         1.934804        -0.025051         1.612689
 C         3.430996        -0.058958         1.275247
 O         4.036301         1.253516         1.098093
 C         3.225527         1.928529         0.077242
 C         2.644815         0.643711        -0.619190
 C         3.287099        -0.619088        -0.105051
 O         1.985647        -1.304362        -0.236952
 H        -0.571065        -0.295403         0.593523
 H        -0.110759         1.279105         0.433131
 H        -0.491582         0.478585        -1.015668
 H         1.783423         0.910385         2.192005
 H         1.486508        -0.898620         2.185241
 H         4.188494        -0.520555         1.893967
 H         2.415125         2.579664         0.434049
 H         3.954008         2.462041        -0.473108
 H         2.587933         0.772666        -1.641999
 H         4.137963        -1.153919        -0.574182
