19
Iteration:  3741charge 0 multiplicity 1
 C        -0.048954         0.247943        -0.098028
 C         1.427997         0.083950         0.161161
 C         2.020773        -0.046905         1.657891
 C         3.520661        -0.146665         1.240017
 O         4.060664         1.167655         1.228937
 C         3.208426         1.896891         0.265820
 C         2.594692         0.810286        -0.599472
 C         3.254953        -0.524119        -0.339664
 O         1.991730        -1.209617        -0.340923
 H        -0.319837        -0.017297        -1.195457
 H        -0.519216        -0.397824         0.660198
 H        -0.319312         1.353573         0.112331
 H         1.823886         0.747890         2.386315
 H         1.606998        -0.880717         2.266683
 H         4.184578        -0.995593         1.650758
 H         2.400719         2.477464         0.811097
 H         3.889672         2.616704        -0.204371
 H         2.282287         1.013562        -1.636610
 H         4.098473        -1.039636        -0.907427
