19
Iteration:  1517charge 0 multiplicity 1
 C        -0.072853         0.098351        -0.156333
 C         1.382324         0.069599         0.142676
 C         1.944567         0.087035         1.609303
 C         3.473385        -0.090050         1.247898
 O         4.211296         1.069086         1.096618
 C         3.354114         1.937925         0.293197
 C         2.517404         0.851400        -0.561185
 C         3.236618        -0.438383        -0.250106
 O         1.951478        -1.258055        -0.237458
 H        -0.384575         1.111115        -0.521085
 H        -0.135127        -0.691378        -0.926835
 H        -0.740293        -0.461297         0.748220
 H         1.863883         1.100718         2.185603
 H         1.436857        -0.603699         2.257230
 H         3.982360        -0.877142         1.845301
 H         2.805891         2.532011         1.024767
 H         3.935950         2.725920        -0.221482
 H         2.207197         0.931655        -1.606687
 H         4.107875        -0.873931        -0.833041
