19
Iteration:  2368
 C        -0.171124         0.151189        -0.101749
 C         1.354415         0.052021         0.172037
 C         1.982190         0.100819         1.656022
 C         3.522586        -0.106008         1.215975
 O         4.145783         1.144071         1.107294
 C         3.290548         1.896102         0.248496
 C         2.646318         0.821273        -0.648634
 C         3.253738        -0.550238        -0.214089
 O         2.001663        -1.227853        -0.263672
 H        -0.428739         1.196418         0.049908
 H        -0.396052        -0.083200        -1.239143
 H        -0.739002        -0.500701         0.661346
 H         1.622158         0.863153         2.472941
 H         1.627712        -0.783360         2.133180
 H         4.070688        -0.639495         1.984445
 H         2.537084         2.541750         0.881183
 H         4.069751         2.437608        -0.325450
 H         2.476228         1.061758        -1.628206
 H         3.969801        -1.073634        -0.822645
