19
Iteration:  3871charge 0 multiplicity 1
 C        -0.012365         0.432458         0.025540
 C         1.428418        -0.071671         0.114863
 C         2.013901        -0.001761         1.612924
 C         3.480047        -0.091684         1.279233
 O         4.052707         1.235690         1.183406
 C         3.156438         1.821475         0.207069
 C         2.567217         0.768861        -0.642281
 C         3.303481        -0.507221        -0.277597
 O         2.051792        -1.360021        -0.318447
 H        -0.013248         1.494464         0.461904
 H        -0.156451         0.489121        -1.026720
 H        -0.807730        -0.204466         0.513746
 H         1.632622         0.979308         1.994474
 H         1.526566        -0.872133         2.044468
 H         4.005493        -0.915937         1.928933
 H         2.377060         2.326865         0.796927
 H         3.783258         2.518950        -0.374511
 H         2.228456         1.021664        -1.642050
 H         4.218613        -0.998716        -0.769314
