19
Iteration:  2707charge 0 multiplicity 1
 C        -0.123304         0.176044        -0.033384
 C         1.402700         0.050043         0.194155
 C         2.016193         0.069946         1.669136
 C         3.447348        -0.127212         1.218895
 O         4.021529         1.225071         1.237802
 C         3.380822         1.850636         0.071747
 C         2.590923         0.769038        -0.625439
 C         3.291045        -0.477652        -0.225326
 O         1.995093        -1.247775        -0.308105
 H        -0.582147         0.919123         0.690896
 H        -0.551197         0.260894        -1.065178
 H        -0.659929        -0.718000         0.154049
 H         1.882390         1.076187         2.127351
 H         1.587427        -0.749034         2.324482
 H         4.044686        -0.933909         1.691011
 H         2.827655         2.717272         0.550597
 H         4.175928         2.280823        -0.581336
 H         2.450025         0.833249        -1.813419
 H         4.197363        -0.988603        -0.582792
