19
Iteration:  1335
 C        -0.098551         0.035768        -0.049495
 C         1.433677         0.106211         0.127919
 C         1.963880         0.070921         1.673879
 C         3.445642        -0.071223         1.324466
 O         4.119661         1.078220         1.116557
 C         3.375744         1.896121         0.126715
 C         2.569980         0.859585        -0.583960
 C         3.257827        -0.534027        -0.199425
 O         1.936020        -1.126806        -0.319597
 H        -0.773637         0.595939         0.616127
 H        -0.384787         0.232317        -1.148934
 H        -0.311123        -0.955714         0.184709
 H         1.711722         0.991851         2.230059
 H         1.514941        -0.798707         2.105978
 H         4.030012        -0.799826         1.996867
 H         2.859971         2.758229         0.573071
 H         4.209921         2.358283        -0.454237
 H         2.391517         1.092615        -1.596408
 H         4.189189        -0.991906        -0.695753
