19
Iteration:  2847
 C        -0.051379         0.058902        -0.144217
 C         1.434970         0.034571         0.261813
 C         1.977266         0.036197         1.672444
 C         3.405800        -0.075127         1.252954
 O         4.097340         1.206514         1.136523
 C         3.481934         1.862094         0.157277
 C         2.521108         0.871738        -0.596728
 C         3.271343        -0.509632        -0.254727
 O         1.891359        -1.196765        -0.256668
 H        -0.666015         0.722008         0.528794
 H        -0.255860         0.138172        -1.304469
 H        -0.443274        -0.947070         0.055871
 H         1.849617         1.035761         2.237478
 H         1.760422        -0.672678         2.417371
 H         3.914636        -0.777225         1.942823
 H         2.973058         2.869617         0.541865
 H         4.216890         2.169587        -0.632471
 H         2.080356         1.197951        -1.629964
 H         3.964784        -1.170753        -0.812243
