19
Iteration:   710
 C        -0.158447        -0.015265        -0.055666
 C         1.418507         0.033871         0.116036
 C         1.941799        -0.169500         1.596852
 C         3.484068        -0.215429         1.180155
 O         4.123304         1.091363         1.365950
 C         3.391455         1.916953         0.361315
 C         2.582885         1.008958        -0.450099
 C         3.261690        -0.356446        -0.359809
 O         1.980743        -1.027988        -0.532547
 H        -0.419553        -0.724088        -0.827017
 H        -0.697308        -0.023287         0.863423
 H        -0.574404         1.020485        -0.496402
 H         1.802804         0.670668         2.311445
 H         1.532049        -1.024630         2.030133
 H         4.023456        -1.043302         1.778875
 H         2.770400         2.664126         0.877033
 H         4.015659         2.441369        -0.388449
 H         2.492288         1.336752        -1.475563
 H         4.037287        -0.703092        -1.067337
