19
Iteration:  1588
 C        -0.004216         0.400291         0.073815
 C         1.502825         0.027047         0.179046
 C         1.968595        -0.154006         1.646942
 C         3.435561        -0.168974         1.334176
 O         3.840512         1.264702         1.216448
 C         3.379091         1.919403        -0.026525
 C         2.593030         0.756418        -0.689702
 C         3.332158        -0.504305        -0.191324
 O         1.998865        -1.265093        -0.325404
 H        -0.262772         0.979255         1.005113
 H        -0.239476         0.932497        -0.936674
 H        -0.454056        -0.557872         0.009529
 H         1.659657         0.610113         2.297779
 H         1.445446        -1.168014         1.990588
 H         4.212495        -0.707923         1.907215
 H         2.638482         2.714457         0.270675
 H         4.264914         2.336114        -0.523763
 H         2.331053         0.545092        -1.824665
 H         4.191018        -0.923201        -0.761561
