19
Iteration:  4419
 C        -0.119794         0.122804         0.000798
 C         1.432807         0.036113         0.191036
 C         1.934941         0.268608         1.575872
 C         3.447846        -0.113955         1.245799
 O         4.161249         1.198113         1.105439
 C         3.339526         1.844608         0.119912
 C         2.536348         0.778920        -0.583064
 C         3.248986        -0.595748        -0.207021
 O         2.026533        -1.306937        -0.236373
 H        -0.429046         0.782234        -0.807239
 H        -0.663994        -0.901388        -0.229340
 H        -0.506769         0.683932         0.903614
 H         1.900924         1.234652         1.986233
 H         1.320482        -0.403783         2.140392
 H         4.005027        -0.725130         1.916297
 H         2.683415         2.494528         0.685760
 H         4.016054         2.411043        -0.554643
 H         2.356168         1.053003        -1.679653
 H         4.178323        -0.927607        -0.779764
