19
Iteration:  4784charge 0 multiplicity 1
 C        -0.154287         0.019533        -0.104653
 C         1.385288         0.116155         0.210783
 C         1.945452         0.284800         1.700547
 C         3.459361         0.017454         1.244030
 O         4.223605         1.169853         0.967217
 C         3.458864         1.827769        -0.056056
 C         2.578232         0.765681        -0.565565
 C         3.206609        -0.631397        -0.065251
 O         1.907594        -1.266979        -0.089598
 H        -0.319743        -0.591623        -1.045147
 H        -0.615458        -0.530605         0.690025
 H        -0.618654         1.050577        -0.253369
 H         1.773264         1.314625         2.113877
 H         1.492254        -0.484636         2.259226
 H         4.019537        -0.560168         2.092120
 H         2.722280         2.553109         0.388562
 H         4.136899         2.393408        -0.785662
 H         2.422363         0.869021        -1.709281
 H         4.044630        -1.196727        -0.548760
