19
Iteration:  2686charge 0 multiplicity 1
 C        -0.061756         0.013756         0.006532
 C         1.421173         0.095599         0.168013
 C         1.866375         0.140738         1.576557
 C         3.451788        -0.059829         1.299351
 O         4.132438         1.127137         1.128816
 C         3.420160         1.934254         0.167435
 C         2.597077         0.844828        -0.607321
 C         3.244034        -0.579656        -0.280455
 O         1.961134        -1.219162        -0.251839
 H        -0.555850         0.755834         0.711041
 H        -0.298239         0.258395        -1.048755
 H        -0.463714        -0.960319         0.104733
 H         1.765938         1.078273         2.162046
 H         1.285236        -0.748297         2.003558
 H         4.016140        -0.611178         2.067559
 H         2.677996         2.711525         0.714489
 H         4.224033         2.510611        -0.394748
 H         2.423434         1.044890        -1.756175
 H         3.872683        -1.180921        -0.950120
