19
Iteration:  3089charge 0 multiplicity 1
 C        -0.049494         0.299406        -0.088181
 C         1.403872         0.004236         0.196406
 C         2.030820        -0.071559         1.582051
 C         3.521005        -0.141281         1.235943
 O         4.000380         1.232902         1.208052
 C         3.245406         1.891235         0.130685
 C         2.591600         0.793827        -0.573629
 C         3.289555        -0.553723        -0.232860
 O         2.010524        -1.268395        -0.262479
 H        -0.065958         1.449410        -0.137829
 H        -0.355838        -0.101493        -1.032094
 H        -0.608005         0.132025         0.806543
 H         1.860951         0.934419         2.024577
 H         1.437406        -0.931331         2.110058
 H         4.155092        -0.618332         2.005013
 H         2.551841         2.611675         0.651713
 H         3.960227         2.510713        -0.453186
 H         2.168785         1.008533        -1.658717
 H         4.036298        -1.037649        -0.841629
