19
Iteration:  2734
 C         0.049479         0.333285        -0.076691
 C         1.477061        -0.013660         0.228911
 C         1.968891        -0.158992         1.693498
 C         3.441105        -0.081756         1.340099
 O         3.988770         1.336711         1.161027
 C         3.330827         1.879209         0.020285
 C         2.560304         0.786624        -0.540299
 C         3.230282        -0.557740        -0.294108
 O         1.985947        -1.287193        -0.307052
 H        -0.189803         1.281722         0.373555
 H        -0.326833         0.329640        -1.112740
 H        -0.604718        -0.438294         0.511716
 H         1.663135         0.776733         2.182830
 H         1.680277        -1.159177         2.191176
 H         4.096185        -0.702025         1.962265
 H         2.681546         2.790768         0.394533
 H         4.093393         2.223009        -0.761968
 H         2.248808         1.035481        -1.484251
 H         4.073091        -1.110193        -0.773883
