19
Iteration:   541
 C        -0.075090         0.075035        -0.116226
 C         1.371042         0.025917         0.164549
 C         1.990416        -0.167720         1.520263
 C         3.485086        -0.279396         1.103933
 O         4.197276         0.982809         1.298698
 C         3.239504         1.954517         0.575920
 C         2.506457         1.080665        -0.351864
 C         3.232190        -0.308913        -0.379055
 O         2.031257        -1.051212        -0.588973
 H        -0.293340         0.790675        -1.014714
 H        -0.507841        -0.967545        -0.326280
 H        -0.695966         0.313207         0.713727
 H         2.005686         0.705579         2.251766
 H         1.567973        -1.146320         2.092860
 H         4.103018        -1.035511         1.636799
 H         2.658774         2.484317         1.318986
 H         3.975286         2.659269        -0.033647
 H         2.300484         1.416230        -1.458376
 H         3.946372        -0.621816        -1.145804
