19
Iteration:  3967charge 0 multiplicity 1
 C        -0.125343         0.074190        -0.007353
 C         1.405421         0.035095         0.190951
 C         1.937885         0.121013         1.649169
 C         3.419207        -0.169535         1.217994
 O         4.100819         1.159116         1.225917
 C         3.404248         1.916954         0.159798
 C         2.598521         0.828490        -0.558145
 C         3.266661        -0.493389        -0.294513
 O         1.973250        -1.199499        -0.371528
 H        -0.431581         0.709126         0.860041
 H        -0.303911         0.434329        -1.057689
 H        -0.455023        -0.950088         0.157456
 H         1.846396         1.225060         2.167154
 H         1.551223        -0.725485         2.235205
 H         4.074088        -0.924440         1.845216
 H         2.690624         2.687818         0.496020
 H         4.174192         2.388777        -0.523695
 H         2.338220         1.014937        -1.633717
 H         4.157323        -0.904951        -0.904965
