19
Iteration:  1401charge 0 multiplicity 1
 C        -0.001916         0.306615        -0.011139
 C         1.455062         0.049682         0.258538
 C         1.948095        -0.051317         1.660251
 C         3.488006        -0.093841         1.280101
 O         4.004467         1.206824         1.147527
 C         3.287225         1.871125         0.081766
 C         2.636940         0.761638        -0.627102
 C         3.257308        -0.515628        -0.245933
 O         1.974064        -1.273046        -0.294783
 H        -0.666163         0.872805         0.602159
 H        -0.020345         0.695245        -1.081070
 H        -0.448603        -0.575206        -0.223688
 H         1.683929         0.813922         2.319414
 H         1.566519        -0.957865         2.184716
 H         4.273200        -0.662789         1.851651
 H         2.500440         2.552419         0.449124
 H         3.901165         2.589774        -0.507477
 H         2.385432         0.942349        -1.621603
 H         4.026789        -1.089580        -0.765811
