19
Iteration:  2339charge 0 multiplicity 1
 C        -0.019803         0.028102        -0.067146
 C         1.384180         0.065872         0.149203
 C         1.915183         0.182512         1.660898
 C         3.407024        -0.148896         1.256567
 O         4.244238         1.155235         1.131620
 C         3.353814         1.878463         0.204444
 C         2.526627         0.868188        -0.566459
 C         3.188410        -0.542196        -0.216075
 O         1.987655        -1.209272        -0.337825
 H        -0.467689         0.806130         0.613380
 H        -0.365545         0.258647        -1.066265
 H        -0.379704        -0.928309         0.129497
 H         1.769934         1.076722         2.142956
 H         1.371383        -0.614325         2.316617
 H         3.823860        -0.744822         2.054550
 H         2.911931         2.703211         0.690047
 H         4.038430         2.271744        -0.587114
 H         2.257234         1.159595        -1.701084
 H         3.977796        -1.045878        -0.746779
