19
Iteration:  4416
 C        -0.121094         0.152541        -0.008335
 C         1.402387         0.012490         0.183177
 C         1.938421         0.236713         1.576537
 C         3.458913        -0.097654         1.253686
 O         4.156366         1.182491         1.099130
 C         3.327967         1.849158         0.098450
 C         2.552217         0.783530        -0.589759
 C         3.264261        -0.584960        -0.182008
 O         2.012895        -1.294966        -0.239740
 H        -0.454418         0.736789        -0.886400
 H        -0.548229        -0.836079        -0.158947
 H        -0.507097         0.712831         0.933282
 H         1.797285         1.288377         2.065555
 H         1.481490        -0.523005         2.266621
 H         4.127864        -0.713640         1.929078
 H         2.591432         2.456762         0.654147
 H         4.034427         2.472560        -0.512283
 H         2.359743         1.059302        -1.673885
 H         4.243343        -1.019190        -0.743857
