19
Iteration:   785charge 0 multiplicity 1
 C         0.014181         0.457860        -0.037881
 C         1.477268         0.032284         0.110764
 C         2.027448        -0.267911         1.657328
 C         3.511926        -0.212783         1.265236
 O         3.983321         1.195559         1.249044
 C         3.067468         1.934729         0.398683
 C         2.600359         0.856199        -0.584083
 C         3.265453        -0.516237        -0.349813
 O         2.083224        -1.231553        -0.524472
 H        -0.185832         1.393904        -0.471286
 H        -0.549091        -0.284008        -0.524491
 H        -0.537383         0.529916         0.961804
 H         1.806429         0.524230         2.605642
 H         1.763340        -1.253458         1.993379
 H         4.239602        -1.026113         1.668254
 H         2.282283         2.397028         0.961558
 H         3.751944         2.616266        -0.164809
 H         2.323616         1.048261        -1.601429
 H         4.180844        -0.718869        -0.946363
