19
Iteration:  3569charge 0 multiplicity 1
 C         0.003009         0.357184        -0.036767
 C         1.455398        -0.001258         0.183177
 C         2.033759         0.023162         1.628631
 C         3.428800        -0.112711         1.244798
 O         3.975456         1.191963         1.267446
 C         3.252932         1.895775         0.167127
 C         2.586861         0.795549        -0.581414
 C         3.248631        -0.562836        -0.325069
 O         2.031721        -1.358677        -0.366696
 H        -0.006217         1.173577        -0.768345
 H        -0.472330        -0.441778        -0.470643
 H        -0.473742         0.582912         0.924534
 H         1.792782         0.951358         2.112516
 H         1.657641        -0.844287         2.296492
 H         4.091658        -0.533778         2.058962
 H         2.517091         2.499921         0.704118
 H         4.014635         2.551128        -0.316099
 H         2.369671         1.027117        -1.617725
 H         3.987256        -0.983471        -1.096140
