19
Iteration:  3659charge 0 multiplicity 1
 C        -0.062730         0.162685         0.045962
 C         1.435301         0.090981         0.112744
 C         1.915637        -0.003097         1.651676
 C         3.446921        -0.201904         1.230227
 O         4.014366         1.207670         1.280780
 C         3.399770         1.908298         0.245213
 C         2.576919         0.862778        -0.647006
 C         3.325093        -0.517683        -0.334127
 O         2.007823        -1.226259        -0.395106
 H        -0.306880        -0.325518        -0.857877
 H        -0.621297        -0.385015         0.830656
 H        -0.498441         1.130646         0.021107
 H         1.831215         0.966117         2.140935
 H         1.395173        -0.827942         2.177499
 H         3.973677        -1.050117         1.746815
 H         2.619590         2.580667         0.650625
 H         4.014785         2.548766        -0.445489
 H         2.400050         1.314958        -1.671599
 H         4.104378        -1.215207        -0.814137
