19
Iteration:  2044
 C        -0.157516         0.107562        -0.045323
 C         1.409383         0.092842         0.187901
 C         1.968243         0.019147         1.631036
 C         3.461130        -0.044464         1.272988
 O         4.079955         1.172165         1.160162
 C         3.426751         1.897273         0.140441
 C         2.614721         0.773310        -0.582605
 C         3.275185        -0.530959        -0.193927
 O         1.964843        -1.172610        -0.339968
 H        -0.840985         0.492715         0.815184
 H        -0.416419         0.772245        -0.985746
 H        -0.521928        -0.901075        -0.241901
 H         1.571663         0.783731         2.266142
 H         1.779247        -1.004343         2.073065
 H         3.974630        -0.844694         1.820506
 H         2.761783         2.657113         0.634513
 H         4.123478         2.448349        -0.450877
 H         2.458403         0.905131        -1.640266
 H         4.128387        -1.010600        -0.733714
