19
Iteration:  2791charge 0 multiplicity 1
 C         0.005190         0.232605        -0.022066
 C         1.470413        -0.057107         0.243423
 C         1.936156         0.081605         1.619571
 C         3.489456        -0.099945         1.246754
 O         4.059832         1.202074         1.178435
 C         3.261560         1.932308         0.175834
 C         2.607425         0.797163        -0.665170
 C         3.216837        -0.532634        -0.246621
 O         1.980102        -1.326381        -0.331746
 H         0.031921         1.295869        -0.098306
 H        -0.376889        -0.131012        -1.072220
 H        -0.670927         0.000579         0.858626
 H         1.613942         1.099142         2.096623
 H         1.734772        -0.739468         2.263713
 H         3.978410        -0.872553         1.925324
 H         2.446707         2.559287         0.740748
 H         3.928438         2.702024        -0.290502
 H         2.508795         0.927203        -1.729575
 H         4.029727        -1.044505        -0.857557
