19
Iteration:  1075charge 0 multiplicity 1
 C        -0.023970         0.302561        -0.102880
 C         1.471226        -0.034445         0.183179
 C         2.020186        -0.033560         1.613522
 C         3.497150        -0.111862         1.264539
 O         4.035735         1.202214         1.227336
 C         3.310876         1.960046         0.213340
 C         2.537117         0.791591        -0.596191
 C         3.192413        -0.509754        -0.244750
 O         1.990930        -1.332226        -0.338153
 H         0.053949         1.296981        -0.568926
 H        -0.443111        -0.390840        -0.940936
 H        -0.774037         0.304727         0.655298
 H         1.859119         0.892525         2.179531
 H         1.489277        -0.981873         2.261920
 H         4.176313        -0.823096         1.874133
 H         2.635444         2.729939         0.733875
 H         3.991823         2.685738        -0.306114
 H         2.162328         0.937654        -1.593779
 H         4.070372        -0.890721        -0.882842
