19
Iteration:  1802
 C        -0.080313         0.234914        -0.071220
 C         1.403329         0.044147         0.214593
 C         1.978180        -0.006303         1.630897
 C         3.536302        -0.025168         1.285200
 O         4.117187         1.168912         1.146956
 C         3.239894         1.896670         0.183887
 C         2.587784         0.791898        -0.612337
 C         3.280539        -0.610406        -0.219030
 O         1.951266        -1.224775        -0.366368
 H        -0.489863         1.017528         0.475216
 H        -0.134607         0.443748        -1.140598
 H        -0.707176        -0.684291         0.169909
 H         1.628550         0.943747         2.253303
 H         1.689966        -0.915780         2.170002
 H         4.240290        -0.639642         1.924456
 H         2.592277         2.428524         0.893097
 H         3.944236         2.621228        -0.351842
 H         2.325364         0.982389        -1.625572
 H         4.175532        -1.150752        -0.599987
