19
Iteration:  2073
 C         0.066314         0.388878        -0.089117
 C         1.477017         0.001889         0.200174
 C         2.005004        -0.037767         1.655086
 C         3.500102        -0.128863         1.275024
 O         4.005471         1.241208         1.185602
 C         3.211046         1.930343         0.123633
 C         2.507267         0.742382        -0.578620
 C         3.274689        -0.593856        -0.230318
 O         1.988366        -1.299338        -0.306069
 H        -0.344734         0.879100         0.678721
 H         0.024767         1.006005        -0.949263
 H        -0.607964        -0.489525        -0.267203
 H         1.673227         0.899254         2.194486
 H         1.691791        -0.890304         2.159588
 H         4.194661        -0.922164         1.763089
 H         2.461827         2.481691         0.684394
 H         3.873842         2.588412        -0.525914
 H         2.221118         0.820111        -1.600257
 H         4.119807        -1.018878        -0.871441
