19
Iteration:   885
 C        -0.192463         0.066042         0.008254
 C         1.340596         0.083050         0.156299
 C         1.971507        -0.076891         1.644121
 C         3.413325        -0.168757         1.233076
 O         4.076044         1.127433         1.317244
 C         3.411728         1.909050         0.269559
 C         2.656150         0.910415        -0.571327
 C         3.290355        -0.420916        -0.357269
 O         2.049490        -1.115766        -0.492044
 H        -0.666370        -0.706752         0.547941
 H        -0.550846         1.024245         0.171246
 H        -0.518225        -0.240798        -0.999225
 H         1.551180         0.851796         2.253918
 H         1.468581        -0.969782         2.116227
 H         3.978800        -0.883565         1.920835
 H         2.781878         2.724001         0.690717
 H         4.274284         2.341018        -0.327803
 H         2.535420         0.956054        -1.711843
 H         4.153434        -0.838347        -0.853321
