19
Iteration:  4295
 C        -0.150329         0.122904         0.005669
 C         1.364198         0.084518         0.149172
 C         1.942699         0.122309         1.679453
 C         3.477680        -0.058300         1.266939
 O         4.173928         1.183009         1.072308
 C         3.362169         1.910342         0.174933
 C         2.596852         0.741105        -0.639683
 C         3.263258        -0.593854        -0.238510
 O         1.975103        -1.226073        -0.256988
 H        -0.295235        -0.919393        -0.494541
 H        -0.773641         0.256714         0.855915
 H        -0.441424         0.794400        -0.902185
 H         1.962642         1.114990         2.178974
 H         1.596869        -0.637577         2.302892
 H         3.927373        -0.657571         2.061223
 H         2.615777         2.581179         0.632002
 H         3.983059         2.592962        -0.435594
 H         2.479186         0.904268        -1.654405
 H         3.993708        -1.225459        -0.760604
