19
Iteration:  3209charge 0 multiplicity 1
 C        -0.126764         0.391861        -0.063147
 C         1.430813         0.024056         0.189095
 C         1.915823         0.096498         1.627678
 C         3.548249        -0.085496         1.294174
 O         4.040058         1.251783         1.126126
 C         3.244815         1.860712         0.081523
 C         2.635068         0.723685        -0.600315
 C         3.334234        -0.678783        -0.184101
 O         2.039628        -1.288639        -0.250250
 H        -0.729800        -0.256786         0.667287
 H        -0.219050         1.460567        -0.052052
 H        -0.308486        -0.094575        -1.023582
 H         1.553927         0.819674         2.324942
 H         1.640326        -0.987959         1.920123
 H         4.005641        -0.697944         2.120624
 H         2.501541         2.451768         0.604083
 H         3.780745         2.557675        -0.619245
 H         2.307881         0.607694        -1.715495
 H         4.118342        -1.195933        -0.771874
