19
Iteration:  2476
 C        -0.100935         0.160744        -0.033217
 C         1.383195         0.033273         0.194616
 C         1.967778         0.143568         1.634714
 C         3.466083        -0.104842         1.253505
 O         4.113032         1.166580         1.207479
 C         3.350927         1.866061         0.126508
 C         2.555918         0.754295        -0.573274
 C         3.257189        -0.484676        -0.257214
 O         1.987199        -1.265762        -0.314509
 H        -0.491270         0.924477         0.531900
 H        -0.214041         0.327666        -1.142840
 H        -0.598581        -0.824417         0.093321
 H         1.967159         1.208321         2.124450
 H         1.479657        -0.659756         2.076621
 H         4.144005        -0.664950         1.887188
 H         2.774400         2.603199         0.591693
 H         3.949696         2.376279        -0.577028
 H         2.468704         0.873687        -1.591669
 H         4.061648        -0.938684        -0.818869
