19
Iteration:  1421
 C         0.035121         0.365493        -0.006059
 C         1.464102         0.053498         0.159182
 C         2.047546        -0.144101         1.678639
 C         3.445272        -0.114654         1.278393
 O         3.912344         1.298500         1.194743
 C         3.260568         1.912760         0.034068
 C         2.571536         0.708542        -0.594293
 C         3.314418        -0.651798        -0.182369
 O         1.973764        -1.214676        -0.357831
 H         0.015573         1.182595         0.699450
 H        -0.290395         0.688061        -1.000191
 H        -0.596420        -0.435712         0.254230
 H         1.762653         0.589324         2.551649
 H         1.578104        -1.057267         2.014944
 H         4.226622        -0.593754         1.940119
 H         2.601764         2.820795         0.264623
 H         4.051454         2.337733        -0.548923
 H         2.332670         0.742196        -1.620297
 H         4.178992        -1.108906        -0.752237
