19
Iteration:  3910
 C        -0.072448         0.162137        -0.065387
 C         1.443392         0.062521         0.246014
 C         1.974919        -0.065404         1.654929
 C         3.472767        -0.154598         1.306094
 O         4.051290         1.200849         1.147601
 C         3.390609         1.904639         0.111620
 C         2.556763         0.879707        -0.655328
 C         3.243681        -0.523877        -0.199027
 O         1.934834        -1.191495        -0.296954
 H        -0.772346         0.600302         0.638510
 H        -0.230342         0.799884        -1.058389
 H        -0.347442        -0.906431        -0.227758
 H         1.885495         0.758926         2.430714
 H         1.760998        -1.074267         2.121988
 H         4.214992        -0.646446         1.870018
 H         2.704353         2.718692         0.441646
 H         4.140830         2.402763        -0.550058
 H         2.444223         1.169974        -1.740426
 H         4.008406        -1.089488        -0.714517
