19
Iteration:  4194charge 0 multiplicity 1
 C        -0.058079         0.412150         0.103917
 C         1.441492        -0.057071         0.153416
 C         2.002655         0.023113         1.600995
 C         3.453526        -0.199819         1.205471
 O         3.909277         1.269246         1.226711
 C         3.280467         1.916149         0.112001
 C         2.529445         0.723133        -0.652300
 C         3.350630        -0.564951        -0.271655
 O         2.088279        -1.331353        -0.316747
 H        -0.369000         0.442366         1.162733
 H         0.000769         1.497215        -0.204369
 H        -0.642053        -0.230901        -0.519349
 H         1.830507         1.020476         2.017619
 H         1.581954        -0.683018         2.387136
 H         4.106905        -0.832902         1.852185
 H         2.538447         2.669081         0.420898
 H         3.995334         2.321473        -0.607898
 H         2.461029         0.826944        -1.772380
 H         4.237581        -1.014482        -0.713917
