19
Iteration:  3515
 C        -0.012587         0.228686        -0.079579
 C         1.378612         0.031730         0.241835
 C         1.953174        -0.083658         1.710168
 C         3.449271        -0.118478         1.236516
 O         4.066423         1.300107         1.232508
 C         3.363585         1.872442         0.126184
 C         2.609725         0.814734        -0.625660
 C         3.277930        -0.539588        -0.243437
 O         1.932874        -1.250123        -0.371828
 H        -0.138904         1.292534        -0.284073
 H        -0.373431        -0.218422        -0.937503
 H        -0.675481        -0.127175         0.721353
 H         1.804178         0.692763         2.370873
 H         1.615158        -1.070756         2.104038
 H         4.192117        -0.653271         1.849761
 H         2.674605         2.647644         0.491858
 H         4.085297         2.436128        -0.542212
 H         2.274864         1.025418        -1.605361
 H         4.022199        -1.229786        -0.724379
