19
Iteration:  3362
 C         0.024750         0.329805        -0.102087
 C         1.400374         0.053547         0.186259
 C         2.002391        -0.009122         1.690156
 C         3.443434        -0.096009         1.279562
 O         4.023163         1.209063         1.102909
 C         3.268275         1.932520         0.048484
 C         2.576386         0.755950        -0.597372
 C         3.273837        -0.651353        -0.131457
 O         1.992850        -1.249512        -0.255814
 H        -0.467931        -0.639198         0.275065
 H        -0.399395         1.110806         0.490671
 H        -0.210817         0.562985        -1.178615
 H         1.754535         0.748500         2.319056
 H         1.672576        -0.902959         2.245082
 H         4.019619        -0.613549         2.022410
 H         2.610816         2.710787         0.470846
 H         4.050875         2.340373        -0.658124
 H         2.515688         0.796603        -1.689621
 H         4.029905        -1.188234        -0.726370
