19
Iteration:  4087
 C        -0.099945         0.108888         0.077498
 C         1.438338         0.067621         0.116411
 C         1.902660         0.036677         1.615029
 C         3.430373        -0.118323         1.248378
 O         4.113488         1.163186         1.196531
 C         3.382376         1.865592         0.195259
 C         2.576341         0.775744        -0.588533
 C         3.293615        -0.475715        -0.218432
 O         1.969048        -1.150627        -0.448467
 H        -0.525682         1.063922         0.548815
 H        -0.567121        -0.132128        -0.922216
 H        -0.496736        -0.751751         0.709183
 H         1.787158         0.982570         2.152678
 H         1.560090        -0.859165         2.054824
 H         4.011613        -0.822832         1.923588
 H         2.784085         2.716811         0.564311
 H         4.100588         2.413320        -0.456566
 H         2.454028         1.034845        -1.608276
 H         4.194675        -0.907261        -0.682714
