19
Iteration:  4589
 C        -0.121715         0.048091        -0.137619
 C         1.387097         0.030890         0.317891
 C         1.991260         0.185752         1.678990
 C         3.496551        -0.101991         1.201263
 O         4.126237         1.228325         1.149795
 C         3.511484         1.841491         0.000285
 C         2.487906         0.768323        -0.654658
 C         3.219422        -0.503655        -0.214866
 O         1.930936        -1.254158        -0.105544
 H        -0.844673         0.072650         0.780076
 H        -0.266693         0.927375        -0.700038
 H        -0.445756        -0.885455        -0.748055
 H         1.984423         1.341581         1.897925
 H         1.377363        -0.427812         2.350552
 H         4.006827        -0.696862         2.033169
 H         3.022449         2.855521         0.214599
 H         4.394097         2.073156        -0.628002
 H         1.910287         0.958728        -1.631152
 H         3.992015        -0.971430        -0.956385
