19
Iteration:  3644
 C        -0.145969         0.086424        -0.038920
 C         1.386309        -0.005036         0.207929
 C         2.007582         0.096846         1.585589
 C         3.427778        -0.142687         1.234641
 O         4.061978         1.088792         1.273985
 C         3.366260         1.898280         0.209380
 C         2.623215         0.876601        -0.602593
 C         3.225494        -0.453880        -0.287275
 O         2.029468        -1.178530        -0.409796
 H        -0.445610        -0.060293        -1.106615
 H        -0.642393        -0.614908         0.587046
 H        -0.406217         1.119218         0.317017
 H         1.863797         1.025813         2.161394
 H         1.552162        -0.695006         2.309924
 H         4.082322        -0.765957         1.905707
 H         2.772228         2.691195         0.680008
 H         4.253576         2.287385        -0.266709
 H         2.392165         0.943230        -1.645488
 H         4.133534        -0.713244        -0.871125
