19
Iteration:  4679charge 0 multiplicity 1
 C         0.026834         0.448335        -0.147266
 C         1.463379        -0.014455         0.283431
 C         2.013472         0.083983         1.681356
 C         3.563789        -0.074322         1.202492
 O         3.947622         1.270449         1.150436
 C         3.177103         1.824314        -0.099410
 C         2.606504         0.623370        -0.632295
 C         3.245431        -0.594439        -0.153446
 O         2.002868        -1.359722        -0.062826
 H        -0.704067        -0.281756        -0.318557
 H        -0.353542         1.160744         0.623842
 H         0.055631         1.058804        -1.064986
 H         1.948788         1.069751         2.202356
 H         1.778350        -0.720407         2.424105
 H         4.196698        -0.613832         1.774863
 H         2.483114         2.609257         0.280776
 H         3.757712         2.190087        -0.941562
 H         2.238013         0.595570        -1.654691
 H         3.939437        -1.146038        -0.729352
