19
Iteration:  1131charge 0 multiplicity 1
 C         0.000103         0.366988        -0.037036
 C         1.465995        -0.058162         0.146962
 C         1.941635        -0.016186         1.602174
 C         3.445061        -0.089307         1.207324
 O         3.993744         1.247900         1.206542
 C         3.273803         1.951272         0.138640
 C         2.620444         0.750687        -0.512462
 C         3.295543        -0.607872        -0.243634
 O         2.011625        -1.330413        -0.326714
 H        -0.327407         1.094887         0.685299
 H        -0.324786         0.851874        -0.948549
 H        -0.741335        -0.413325         0.180831
 H         1.759952         0.958904         2.140927
 H         1.577710        -0.995693         2.222514
 H         4.138258        -0.703576         1.881511
 H         2.579193         2.738787         0.620042
 H         4.007459         2.358264        -0.585224
 H         2.343577         1.018520        -1.510382
 H         4.099022        -1.101330        -0.783209
