19
Iteration:  2943charge 0 multiplicity 1
 C        -0.023418         0.305092        -0.143462
 C         1.412141         0.046271         0.244478
 C         2.029653        -0.025186         1.632651
 C         3.510571        -0.165562         1.233491
 O         4.018820         1.242963         1.182760
 C         3.278242         1.959559         0.174980
 C         2.496660         0.789510        -0.605487
 C         3.185084        -0.575467        -0.275046
 O         2.046747        -1.335656        -0.233412
 H        -0.089595         1.352991        -0.136344
 H        -0.187941        -0.139256        -1.177273
 H        -0.769582        -0.109907         0.547068
 H         1.912322         0.976078         2.200083
 H         1.635574        -0.835441         2.229403
 H         4.162831        -0.645534         2.002785
 H         2.656561         2.693272         0.646550
 H         4.087616         2.293963        -0.502065
 H         2.501937         0.894611        -1.655619
 H         4.077288        -0.950343        -0.873415
