19
Iteration:  2437charge 0 multiplicity 1
 C        -0.046555         0.376003         0.060733
 C         1.444177         0.091184         0.186487
 C         1.966390        -0.115849         1.619243
 C         3.529809        -0.095234         1.258373
 O         3.907016         1.262294         1.203483
 C         3.279656         1.867388         0.029845
 C         2.607412         0.713573        -0.619167
 C         3.349179        -0.564491        -0.195278
 O         2.002804        -1.274989        -0.306109
 H        -0.261069         1.538549         0.153135
 H        -0.319979         0.244433        -1.013310
 H        -0.771077        -0.100279         0.681616
 H         1.625052         0.491839         2.392553
 H         1.582904        -1.183205         1.941694
 H         4.192546        -0.700402         1.890367
 H         2.553402         2.705288         0.362842
 H         4.123386         2.255587        -0.642097
 H         2.675931         0.651034        -1.782747
 H         4.184772        -0.907705        -0.814831
