19
Iteration:  2469charge 0 multiplicity 1
 C        -0.037117         0.179528         0.004369
 C         1.432873         0.053065         0.183760
 C         1.943239         0.093983         1.670339
 C         3.494639        -0.086727         1.283567
 O         4.083952         1.179038         1.226024
 C         3.320871         1.894111         0.082287
 C         2.560213         0.785672        -0.631172
 C         3.274193        -0.515802        -0.252551
 O         1.940462        -1.320712        -0.354085
 H        -0.484234         1.099471         0.595353
 H        -0.124052         0.379740        -1.109863
 H        -0.567988        -0.737597         0.249558
 H         1.672616         1.080699         2.059869
 H         1.429335        -0.681053         2.400800
 H         4.091931        -0.792814         1.876949
 H         2.678164         2.757878         0.626840
 H         4.142857         2.401191        -0.553347
 H         2.470907         0.837442        -1.773629
 H         4.139370        -0.866543        -0.803901
