19
Iteration:  1146
 C        -0.061628         0.230053        -0.041114
 C         1.410884         0.054401         0.194949
 C         1.926457         0.006391         1.610303
 C         3.490992        -0.147689         1.315458
 O         4.035088         1.218736         1.225663
 C         3.381672         1.851133         0.109935
 C         2.510363         0.785088        -0.597001
 C         3.262442        -0.509043        -0.266521
 O         2.044101        -1.251769        -0.329188
 H        -0.436300         0.839677         0.838227
 H        -0.172366         0.776513        -0.960631
 H        -0.538722        -0.841558        -0.084163
 H         1.747295         1.026869         2.115414
 H         1.408009        -0.715940         2.189566
 H         4.062466        -0.742123         1.974042
 H         2.813904         2.724297         0.405934
 H         4.128624         2.294987        -0.524656
 H         2.313579         0.881893        -1.713945
 H         4.060014        -0.899970        -0.886784
