19
Iteration:  4815charge 0 multiplicity 1
 C         0.005068         0.299839        -0.128262
 C         1.457873        -0.001713         0.192679
 C         2.026329         0.212671         1.739737
 C         3.460544         0.042751         1.255732
 O         4.079524         1.260605         1.035844
 C         3.306628         1.787873        -0.136891
 C         2.543070         0.692149        -0.624626
 C         3.197509        -0.652700        -0.086238
 O         1.932790        -1.383650        -0.036047
 H        -0.153487         0.572022        -1.204896
 H        -0.612015        -0.475653         0.154055
 H        -0.256172         1.157397         0.467277
 H         1.802244         1.139549         2.323181
 H         1.622656        -0.641721         2.285062
 H         4.156140        -0.482139         2.085985
 H         2.545746         2.523091         0.203570
 H         4.054237         2.207794        -0.851686
 H         2.325206         0.571227        -1.717426
 H         4.059771        -1.115265        -0.675198
