19
Iteration:  3147charge 0 multiplicity 1
 C        -0.127135         0.069575        -0.134873
 C         1.389433         0.058289         0.166072
 C         1.989516         0.107511         1.719106
 C         3.442401        -0.093708         1.242478
 O         4.153974         1.186522         1.205319
 C         3.434432         1.864358         0.081083
 C         2.572154         0.786046        -0.608445
 C         3.204223        -0.465789        -0.155346
 O         1.950938        -1.200626        -0.296676
 H        -0.573423         0.510049         0.749711
 H        -0.517057         0.670659        -0.910992
 H        -0.565831        -0.943478        -0.322174
 H         1.630490         0.892595         2.386585
 H         1.689613        -0.932245         2.048384
 H         4.049394        -0.802751         1.861939
 H         2.781471         2.640378         0.581475
 H         4.066400         2.399924        -0.600840
 H         2.573444         0.836320        -1.666478
 H         4.036237        -0.893918        -0.777886
