19
Iteration:  3374
 C        -0.044302         0.318533        -0.111763
 C         1.468358        -0.000334         0.259335
 C         1.983398        -0.048944         1.707281
 C         3.465458        -0.080590         1.310477
 O         4.012994         1.274799         1.123804
 C         3.331310         1.809056         0.033433
 C         2.607423         0.703865        -0.614944
 C         3.276208        -0.532699        -0.170966
 O         1.933941        -1.203222        -0.284354
 H        -0.897930        -0.348437         0.291377
 H        -0.209761         1.308765         0.223825
 H        -0.106707         0.267137        -1.257388
 H         1.816724         0.714202         2.350793
 H         1.714912        -1.068158         2.030371
 H         4.191388        -0.647646         1.846975
 H         2.600255         2.578832         0.361980
 H         4.038906         2.377760        -0.628665
 H         2.192942         0.827134        -1.554427
 H         4.159043        -1.116614        -0.441478
