19
Iteration:  3301charge 0 multiplicity 1
 C        -0.065505         0.137272        -0.089395
 C         1.377307         0.100287         0.239492
 C         1.864912         0.107588         1.692854
 C         3.392372        -0.097190         1.301365
 O         4.179066         1.239275         1.082527
 C         3.460084         1.822595         0.074176
 C         2.579435         0.782601        -0.591760
 C         3.228580        -0.549461        -0.163262
 O         1.957056        -1.246050        -0.272969
 H        -0.016077        -0.853805        -0.400288
 H        -0.733251         0.263621         0.765811
 H        -0.400734         0.565766        -1.044113
 H         1.773065         1.156960         2.160680
 H         1.597257        -0.803661         2.265935
 H         4.037448        -0.704907         1.914893
 H         2.736679         2.636540         0.347737
 H         4.014244         2.293328        -0.680664
 H         2.433164         1.057327        -1.587039
 H         4.041894        -1.080818        -0.648271
