19
Iteration:   578
 C        -0.061444         0.184481         0.068848
 C         1.420842         0.037380         0.068620
 C         2.032273        -0.366135         1.514725
 C         3.492252        -0.233687         1.162309
 O         3.970312         1.076415         1.434252
 C         3.302686         1.995893         0.400475
 C         2.549440         0.994637        -0.496446
 C         3.265371        -0.392065        -0.356318
 O         2.021539        -1.026812        -0.628647
 H        -0.208349         1.230992         0.104222
 H        -0.470802        -0.141134        -0.877845
 H        -0.481614        -0.343312         1.052357
 H         1.798501         0.349847         2.310732
 H         1.800065        -1.294676         1.788941
 H         4.028930        -0.965630         1.742683
 H         2.616062         2.724436         0.903865
 H         4.110298         2.479624        -0.111316
 H         2.517189         1.259223        -1.528131
 H         4.106431        -0.672632        -1.021469
