19
Iteration:  2192
 C        -0.075134         0.070656        -0.125684
 C         1.379431         0.066511         0.240330
 C         1.912993         0.095570         1.676252
 C         3.456973        -0.130688         1.219461
 O         4.220419         1.134561         1.212916
 C         3.361376         1.895359         0.156839
 C         2.520624         0.854759        -0.537169
 C         3.238071        -0.508457        -0.215810
 O         1.952636        -1.185674        -0.375026
 H        -0.428596         0.996081        -0.676688
 H        -0.150773        -0.765034        -0.881069
 H        -0.909751        -0.129701         0.681277
 H         1.750971         1.156832         2.193978
 H         1.696273        -0.746169         2.329252
 H         4.118020        -0.803379         1.840004
 H         2.841513         2.546112         0.801261
 H         4.011339         2.413291        -0.615516
 H         2.376605         0.940095        -1.571769
 H         4.102477        -0.850826        -0.868894
