19
Iteration:  2615charge 0 multiplicity 1
 C         0.010296         0.331934        -0.066056
 C         1.484183         0.051768         0.215244
 C         2.015398        -0.082933         1.690569
 C         3.526873        -0.115265         1.347972
 O         3.973179         1.291923         1.214725
 C         3.278927         1.877642         0.072780
 C         2.523981         0.749304        -0.675116
 C         3.228559        -0.581196        -0.328042
 O         1.990350        -1.290878        -0.257165
 H         0.052271         1.395513         0.049152
 H        -0.261545        -0.052298        -1.039070
 H        -0.726999        -0.089416         0.706837
 H         1.606669         0.721608         2.308236
 H         1.655488        -1.032433         1.971081
 H         4.259868        -0.581202         2.004172
 H         2.617838         2.654803         0.474793
 H         3.921764         2.376083        -0.633382
 H         2.293744         0.849186        -1.680150
 H         4.051225        -0.972441        -0.960126
