19
Iteration:  3292charge 0 multiplicity 1
 C        -0.035592         0.089689        -0.130669
 C         1.433906         0.106108         0.244513
 C         1.881895         0.032778         1.710490
 C         3.367918         0.015265         1.265338
 O         4.178412         1.225438         1.135967
 C         3.436576         1.820569         0.013314
 C         2.606290         0.766585        -0.575299
 C         3.190014        -0.563095        -0.237740
 O         1.941395        -1.189796        -0.224604
 H        -0.366630        -0.916319        -0.412328
 H        -0.809110         0.365904         0.683549
 H        -0.354017         0.771681        -0.925329
 H         1.572747         0.931131         2.390915
 H         1.734749        -0.781930         2.370148
 H         3.981188        -0.610811         1.947417
 H         2.942166         2.648521         0.557812
 H         4.191677         2.154612        -0.703865
 H         2.312126         0.815194        -1.669414
 H         4.015601        -1.094414        -0.692501
