19
Iteration:   381charge 0 multiplicity 1
 C        -0.065521         0.073901        -0.118485
 C         1.402676         0.051971         0.200259
 C         1.963834        -0.295028         1.601982
 C         3.477866        -0.249712         1.068706
 O         4.201577         0.908952         1.346008
 C         3.260645         1.896300         0.666253
 C         2.450445         1.099804        -0.348087
 C         3.241341        -0.191581        -0.491063
 O         2.043776        -0.998125        -0.716566
 H        -0.534260         0.876683         0.446009
 H        -0.219023         0.390147        -1.160999
 H        -0.495604        -0.910606         0.034893
 H         1.939007         0.514001         2.381910
 H         1.603295        -1.248764         2.001864
 H         4.206106        -0.991782         1.498610
 H         2.433669         2.136861         1.444118
 H         3.795577         2.734167         0.328401
 H         2.097265         1.653640        -1.282003
 H         4.185720        -0.292751        -1.122472
