19
Iteration:  3671
 C        -0.010506         0.221017        -0.004372
 C         1.473059         0.085992         0.150283
 C         1.925577        -0.086380         1.546269
 C         3.475462        -0.133670         1.205999
 O         4.021897         1.172257         1.287060
 C         3.268441         1.928968         0.187375
 C         2.626300         0.859425        -0.559002
 C         3.255533        -0.577072        -0.281944
 O         1.978783        -1.207066        -0.377503
 H        -0.467865        -0.411658        -0.721664
 H        -0.278447        -0.121200         1.028196
 H        -0.328119         1.232182        -0.109295
 H         1.756586         0.717409         2.267604
 H         1.464501        -0.953898         1.960520
 H         4.165244        -0.631543         1.843616
 H         2.630944         2.684283         0.680071
 H         4.100901         2.439718        -0.322163
 H         2.377297         0.971657        -1.635080
 H         4.107222        -0.887088        -0.876470
