19
Iteration:  2004charge 0 multiplicity 1
 C        -0.130852        -0.009072        -0.042923
 C         1.337105        -0.032112         0.237232
 C         1.955779         0.201560         1.622345
 C         3.417629        -0.115700         1.186553
 O         4.067374         1.113505         1.248410
 C         3.529935         1.893889         0.159666
 C         2.587969         0.913747        -0.517911
 C         3.240788        -0.477398        -0.294410
 O         1.992706        -1.192844        -0.394019
 H        -0.703105         0.743304         0.599683
 H        -0.344494         0.052211        -1.073319
 H        -0.428618        -0.980399         0.265672
 H         1.743823         1.215296         2.001780
 H         1.570192        -0.601259         2.376271
 H         4.008598        -0.651152         1.858547
 H         2.920993         2.664374         0.612246
 H         4.404751         2.235714        -0.522123
 H         2.251854         1.061454        -1.608546
 H         4.061209        -0.906025        -0.781641
