19
Iteration:  2517
 C        -0.018038         0.061166        -0.172099
 C         1.381556         0.081155         0.274928
 C         1.951735         0.132469         1.668886
 C         3.427046        -0.100973         1.239823
 O         4.223001         1.192221         1.042760
 C         3.391803         1.864241         0.194227
 C         2.554167         0.791279        -0.523784
 C         3.146793        -0.517207        -0.215197
 O         1.939722        -1.193825        -0.264740
 H        -0.613766         0.779733         0.377217
 H        -0.024780         0.187574        -1.219504
 H        -0.457324        -0.974850        -0.001883
 H         1.778998         0.954511         2.410314
 H         1.679986        -0.799732         2.177738
 H         3.845460        -0.868442         1.900480
 H         2.601336         2.576451         0.734157
 H         4.018503         2.516924        -0.399401
 H         2.279438         0.884187        -1.558508
 H         3.978900        -0.908621        -0.864800
