19
Iteration:   398charge 0 multiplicity 1
 C        -0.062801         0.177148        -0.085513
 C         1.401728        -0.000451         0.139037
 C         2.091946        -0.361480         1.556051
 C         3.545669        -0.335433         1.132578
 O         4.076878         1.028412         1.360677
 C         3.225493         1.943663         0.678010
 C         2.478411         1.084925        -0.390165
 C         3.252989        -0.282220        -0.443986
 O         2.022234        -0.962255        -0.693370
 H        -0.685502         0.522163         0.820911
 H        -0.331549         0.905672        -0.880271
 H        -0.507741        -0.788593        -0.388928
 H         1.728180         0.295427         2.322608
 H         1.832778        -1.397777         1.825263
 H         4.113625        -1.214405         1.391241
 H         2.620548         2.506338         1.347746
 H         3.953428         2.555249         0.033879
 H         2.236486         1.510114        -1.417944
 H         3.964003        -0.597525        -1.162037
