19
Iteration:  2492
 C        -0.157307         0.071944        -0.174090
 C         1.381325         0.089711         0.171895
 C         1.976142         0.099822         1.625786
 C         3.493562        -0.113804         1.237288
 O         4.186196         1.135520         1.099706
 C         3.355888         1.872630         0.188293
 C         2.525754         0.881094        -0.568131
 C         3.264050        -0.558098        -0.209549
 O         1.988365        -1.205165        -0.190598
 H        -0.708221         0.824245         0.616798
 H        -0.424112         0.369668        -1.206407
 H        -0.555500        -0.918579         0.072654
 H         1.733338         1.056170         2.039566
 H         1.726704        -0.661615         2.510589
 H         3.897471        -0.897662         1.906145
 H         2.694944         2.773387         0.761211
 H         4.177808         2.397106        -0.463468
 H         2.200053         1.157551        -1.672573
 H         4.104488        -1.043922        -0.762395
