19
Iteration:  1520
 C        -0.061561         0.108028        -0.147041
 C         1.381786         0.054864         0.162028
 C         1.957301         0.130395         1.624872
 C         3.437194        -0.114230         1.250803
 O         4.200846         1.069344         1.104247
 C         3.351771         1.941003         0.268062
 C         2.517126         0.831302        -0.544440
 C         3.257353        -0.445912        -0.291425
 O         1.977221        -1.248540        -0.239388
 H        -0.406362         1.084484        -0.450486
 H        -0.155280        -0.661187        -1.044962
 H        -0.757035        -0.408487         0.705472
 H         1.863482         1.122424         2.194844
 H         1.440162        -0.711111         2.173884
 H         3.881380        -0.876162         1.880571
 H         2.778062         2.516333         1.067830
 H         3.886868         2.622745        -0.285696
 H         2.181969         0.970205        -1.495455
 H         4.059554        -0.796132        -0.853576
