19
Iteration:  1340charge 0 multiplicity 1
 C        -0.079676         0.041115        -0.091629
 C         1.380590         0.090952         0.137462
 C         1.962224         0.116928         1.732395
 C         3.400720        -0.065614         1.317461
 O         4.152405         1.048539         1.121798
 C         3.392631         1.928031         0.123741
 C         2.557033         0.858467        -0.591748
 C         3.295162        -0.519044        -0.221496
 O         1.932484        -1.145441        -0.329175
 H        -0.656138         0.534953         0.708200
 H        -0.372455         0.295641        -1.102839
 H        -0.085576        -1.127275         0.176668
 H         1.669340         1.049727         2.265804
 H         1.560145        -0.820357         2.197198
 H         4.025322        -0.674136         1.902892
 H         2.751998         2.608496         0.736269
 H         4.219704         2.342541        -0.457175
 H         2.280248         1.068978        -1.679554
 H         4.052369        -1.070967        -0.701366
