19
Iteration:  4052
 C        -0.020363         0.298213        -0.065511
 C         1.410700         0.004411         0.162783
 C         2.035816        -0.207910         1.748033
 C         3.502952        -0.156877         1.185674
 O         3.971335         1.253064         1.227064
 C         3.318326         1.940638         0.161196
 C         2.569075         0.797906        -0.592831
 C         3.276635        -0.488811        -0.329784
 O         1.963315        -1.216549        -0.285058
 H        -0.147647         1.387242        -0.396077
 H        -0.503514        -0.128062        -1.051991
 H        -0.636255         0.128316         0.814332
 H         1.864372         0.589554         2.393121
 H         1.565535        -1.065538         2.264804
 H         4.354902        -0.770898         1.651074
 H         2.573338         2.648717         0.589532
 H         4.148516         2.369276        -0.428908
 H         2.212051         1.029050        -1.688077
 H         4.200434        -0.960737        -0.844869
