19
Iteration:    94charge 0 multiplicity 1
 C        -0.033576         0.284271         0.081188
 C         1.433002         0.078321         0.124490
 C         2.135284        -0.652060         1.327075
 C         3.556537        -0.372031         0.998263
 O         4.030944         0.901944         1.520077
 C         3.032774         1.925629         0.905670
 C         2.413920         1.152074        -0.251791
 C         3.282899        -0.169345        -0.529362
 O         2.117947        -0.851863        -0.959693
 H        -0.401387        -0.095697        -0.936792
 H        -0.387694        -0.265735         0.954436
 H        -0.138592         1.363335         0.163909
 H         2.028389        -0.252636         2.421974
 H         1.838983        -1.750228         1.256978
 H         4.292810        -1.085244         1.383127
 H         2.260300         2.241428         1.607682
 H         3.540679         2.749361         0.504556
 H         2.400968         1.697229        -1.281231
 H         4.041341        -0.296705        -1.313350
