19
Iteration:  2360charge 0 multiplicity 1
 C        -0.146986         0.126851        -0.077855
 C         1.350759         0.040529         0.160639
 C         1.915938         0.095524         1.571649
 C         3.541043        -0.082017         1.246893
 O         4.186083         1.115506         1.092231
 C         3.358389         1.939835         0.254072
 C         2.658793         0.810350        -0.591057
 C         3.244772        -0.476858        -0.224523
 O         1.936917        -1.257012        -0.237098
 H        -0.659097         1.091360         0.211867
 H        -0.416596        -0.115978        -1.134377
 H        -0.620861        -0.685251         0.419806
 H         1.706864         0.969354         2.119372
 H         1.567077        -0.857858         2.098022
 H         4.046454        -0.729139         1.954806
 H         2.663014         2.482064         0.797279
 H         3.973843         2.738704        -0.241908
 H         2.346231         0.947226        -1.683351
 H         4.065968        -0.965125        -0.696791
