19
Iteration:  3702charge 0 multiplicity 1
 C        -0.044317         0.421463        -0.159365
 C         1.426024         0.005735         0.269040
 C         1.950533        -0.229331         1.767510
 C         3.518112        -0.128733         1.203993
 O         4.065084         1.221110         1.221193
 C         3.201378         1.916548         0.179843
 C         2.545095         0.784487        -0.526737
 C         3.286756        -0.523028        -0.277144
 O         2.059390        -1.262133        -0.432979
 H        -0.558821        -0.167421        -0.845902
 H        -0.594361         0.323870         0.773312
 H        -0.117863         1.449340        -0.417887
 H         1.844126         0.689119         2.322231
 H         1.574129        -1.290709         2.075400
 H         4.341141        -0.592663         1.819523
 H         2.496170         2.623853         0.630977
 H         3.850916         2.588494        -0.449120
 H         2.091130         1.043761        -1.524191
 H         4.189161        -0.919793        -0.875402
