19
Iteration:  1436charge 0 multiplicity 1
 C        -0.037760         0.442537         0.051085
 C         1.431836        -0.024180         0.193870
 C         1.995520        -0.136413         1.637542
 C         3.524649        -0.104339         1.264423
 O         3.878907         1.321119         1.272050
 C         3.323319         1.863756         0.035251
 C         2.620234         0.757960        -0.655694
 C         3.255444        -0.519883        -0.225004
 O         2.021686        -1.347334        -0.358769
 H        -0.142780         1.486060         0.371776
 H        -0.252556         0.368145        -1.058352
 H        -0.651087        -0.236178         0.687663
 H         1.690604         0.612148         2.267417
 H         1.716627        -1.154818         2.071380
 H         4.218220        -0.713210         1.821953
 H         2.644368         2.604785         0.361308
 H         4.176562         2.242147        -0.659228
 H         2.460155         0.868447        -1.765210
 H         4.072712        -0.949555        -0.720105
