19
Iteration:   796
 C         0.030239         0.395971        -0.060228
 C         1.483193         0.028411         0.184693
 C         2.003139        -0.278267         1.598246
 C         3.495973        -0.171328         1.176258
 O         4.012821         1.157153         1.227686
 C         3.112997         1.893886         0.390691
 C         2.553341         0.828456        -0.566352
 C         3.343204        -0.468074        -0.297262
 O         2.023020        -1.156765        -0.474556
 H         0.014318         1.427615        -0.336684
 H        -0.424374        -0.133856        -0.841030
 H        -0.487313         0.230290         0.937468
 H         1.634732         0.603419         2.353297
 H         1.657946        -1.246369         1.931618
 H         4.265104        -0.723347         1.841761
 H         2.299182         2.248101         1.013887
 H         3.528885         2.858161         0.016190
 H         2.261979         1.029715        -1.585951
 H         4.121739        -0.987695        -0.894217
