19
Iteration:  3479charge 0 multiplicity 1
 C        -0.112789         0.178628        -0.175178
 C         1.430449         0.093711         0.245611
 C         1.950516         0.101374         1.695114
 C         3.429266        -0.123595         1.194670
 O         4.137196         1.166257         1.164165
 C         3.365112         1.816077         0.186140
 C         2.467982         0.868445        -0.593339
 C         3.249545        -0.542412        -0.250269
 O         2.047561        -1.290027        -0.273400
 H        -0.587069         0.963103         0.468637
 H        -0.112408         0.410416        -1.258608
 H        -0.554237        -0.796552         0.009136
 H         1.995930         1.004940         2.442479
 H         1.512727        -0.726034         2.323304
 H         3.962139        -0.796337         1.820600
 H         2.702017         2.562016         0.695591
 H         4.014076         2.344911        -0.538750
 H         2.272238         1.264579        -1.635567
 H         4.186737        -0.898590        -0.606000
