19
Iteration:  4168
 C        -0.018412         0.367197        -0.087696
 C         1.438797         0.030254         0.242957
 C         2.000908        -0.133219         1.659835
 C         3.514996        -0.018693         1.229075
 O         4.045563         1.225119         1.156635
 C         3.262926         1.901776         0.115844
 C         2.535269         0.736337        -0.560254
 C         3.240831        -0.558696        -0.237988
 O         1.985315        -1.272502        -0.294333
 H        -0.432629         0.486860         0.883191
 H        -0.143381         1.256035        -0.726953
 H        -0.382118        -0.576451        -0.505511
 H         1.630551         0.685065         2.331885
 H         1.799257        -1.107900         2.244151
 H         4.180435        -0.614913         1.844465
 H         2.489316         2.536566         0.547816
 H         3.930950         2.378411        -0.601771
 H         2.341908         0.868140        -1.683276
 H         4.094035        -0.990247        -0.864736
