19
Iteration:  3683charge 0 multiplicity 1
 C        -0.029823         0.296075         0.002922
 C         1.435299         0.032159         0.148742
 C         2.058237        -0.141772         1.593650
 C         3.488323        -0.152556         1.303817
 O         3.985128         1.185523         1.204743
 C         3.279304         1.941983         0.231853
 C         2.569893         0.774376        -0.590487
 C         3.286826        -0.478598        -0.225908
 O         1.983657        -1.196409        -0.409822
 H        -0.395089        -0.314691        -0.829406
 H        -0.790078         0.223214         0.828064
 H        -0.100886         1.297905        -0.385844
 H         1.637336         0.594681         2.308334
 H         1.833828        -1.113983         1.800933
 H         4.021026        -0.801504         1.884522
 H         2.537038         2.678012         0.622251
 H         3.976710         2.464229        -0.433877
 H         2.463049         0.916777        -1.663554
 H         3.967520        -0.967421        -0.817740
