19
Iteration:  3619charge 0 multiplicity 1
 C        -0.097185         0.086251        -0.143046
 C         1.407599         0.045874         0.229789
 C         1.915728         0.005039         1.636765
 C         3.396476        -0.195485         1.317054
 O         4.246602         1.205724         1.123205
 C         3.391222         1.920761         0.256916
 C         2.548043         0.887607        -0.534019
 C         3.204676        -0.486839        -0.272192
 O         1.977286        -1.204572        -0.359264
 H        -0.149237         0.454415        -1.218887
 H        -0.533151        -0.990155        -0.106173
 H        -0.654811         0.774302         0.529787
 H         1.585263         0.817959         2.360768
 H         1.371831        -0.808710         1.982666
 H         4.107149        -0.635516         1.897784
 H         2.925950         2.817602         0.721319
 H         4.128579         2.221384        -0.456772
 H         2.111947         1.103828        -1.502371
 H         4.038611        -0.868166        -0.720568
