19
Iteration:   181charge 0 multiplicity 1
 C        -0.033154         0.032053        -0.062155
 C         1.401734         0.075686         0.175053
 C         2.047964        -0.496525         1.436297
 C         3.533181        -0.336468         0.994052
 O         4.075461         0.909096         1.430770
 C         3.298482         1.930346         0.789071
 C         2.427620         1.175610        -0.208497
 C         3.255184        -0.095433        -0.438427
 O         1.992934        -0.869324        -0.880988
 H        -0.641669         0.597688         0.733669
 H        -0.250795         0.389946        -1.077719
 H        -0.466573        -0.950736         0.034291
 H         1.823109        -0.058449         2.471293
 H         1.749767        -1.556884         1.444768
 H         4.274460        -1.108373         1.213617
 H         2.725831         2.520115         1.586612
 H         3.972015         2.590096         0.364761
 H         2.113529         1.818084        -1.161634
 H         4.141052        -0.230455        -1.035926
