19
Iteration:  4927charge 0 multiplicity 1
 C        -0.066177        -0.045983        -0.112310
 C         1.455887         0.070130         0.232538
 C         1.898404         0.340627         1.664550
 C         3.411875        -0.072399         1.272807
 O         4.299227         1.221175         0.960525
 C         3.437707         1.856957         0.010513
 C         2.531774         0.783912        -0.611242
 C         3.189453        -0.603441        -0.166520
 O         1.849478        -1.261885        -0.026783
 H        -0.324332        -0.650402        -0.904757
 H        -0.600482        -0.405845         0.745720
 H        -0.486100         0.989451        -0.319873
 H         1.800226         1.407790         1.982883
 H         1.393392        -0.315742         2.310319
 H         4.039690        -0.639589         1.923046
 H         2.768382         2.618170         0.418284
 H         4.138009         2.162440        -0.817021
 H         2.263345         0.688828        -1.679739
 H         4.032820        -1.097231        -0.472306
