19
Iteration:  1775charge 0 multiplicity 1
 C         0.068733         0.453463        -0.002384
 C         1.443279        -0.051856         0.199051
 C         2.015512        -0.076270         1.587958
 C         3.503785        -0.183216         1.293607
 O         3.901069         1.210575         1.192392
 C         3.161759         1.899866         0.129416
 C         2.568727         0.787133        -0.595752
 C         3.321730        -0.536447        -0.344929
 O         2.052043        -1.295760        -0.258488
 H         0.070228         1.616929         0.214487
 H        -0.293683         0.210760        -1.056524
 H        -0.753297        -0.037837         0.614436
 H         1.716349         0.719919         2.195484
 H         1.658723        -0.985375         2.165527
 H         4.141234        -0.705317         1.989135
 H         2.507901         2.639913         0.570617
 H         3.923682         2.277018        -0.491798
 H         2.345997         1.028424        -1.725480
 H         4.136125        -0.858139        -1.013436
