19
Iteration:   872charge 0 multiplicity 1
 C        -0.176124        -0.006073        -0.045397
 C         1.411673         0.134457         0.206484
 C         1.863168        -0.056977         1.617327
 C         3.436930        -0.166077         1.241366
 O         4.106717         1.129582         1.317981
 C         3.487139         1.898785         0.235010
 C         2.617153         0.947334        -0.548811
 C         3.245192        -0.439589        -0.270346
 O         1.997844        -1.136687        -0.539094
 H        -0.496115        -0.345157         0.873322
 H        -0.730298         0.876011        -0.167202
 H        -0.314301        -0.677182        -0.952557
 H         1.795589         0.729622         2.485927
 H         1.557927        -1.008797         1.946026
 H         4.132036        -0.972484         1.738009
 H         2.843566         2.723842         0.697739
 H         4.235159         2.462064        -0.416540
 H         2.262020         1.441451        -1.434815
 H         4.127755        -0.791094        -0.856654
