19
Iteration:  4523charge 0 multiplicity 1
 C         0.021442         0.447613        -0.010074
 C         1.436357         0.065895         0.201019
 C         2.004576         0.138702         1.552863
 C         3.482419        -0.093485         1.266660
 O         3.960732         1.320605         1.141523
 C         3.176078         1.817500         0.006387
 C         2.562731         0.552240        -0.684532
 C         3.314214        -0.644988        -0.163716
 O         2.022338        -1.433373        -0.171925
 H        -0.130082         1.132232         0.908545
 H        -0.118812         1.101577        -0.819237
 H        -0.755554        -0.317794        -0.018718
 H         2.127723         1.105641         2.190604
 H         1.729713        -0.716333         2.198188
 H         4.256437        -0.626153         1.938083
 H         2.345506         2.547406         0.283782
 H         3.884334         2.542049        -0.364132
 H         2.326279         0.700300        -1.755380
 H         4.333512        -1.015238        -0.493800
