19
Iteration:   257charge 0 multiplicity 1
 C        -0.005486         0.272889         0.073147
 C         1.473655        -0.006091         0.097526
 C         2.067005        -0.595975         1.466252
 C         3.502320        -0.313788         1.029656
 O         3.979090         0.977170         1.430848
 C         3.127767         1.924574         0.733417
 C         2.489432         1.093022        -0.382470
 C         3.333867        -0.190707        -0.443697
 O         2.041251        -0.907649        -0.805168
 H        -0.555977        -0.638577        -0.263662
 H        -0.315108         0.650228         1.046221
 H        -0.226109         1.090932        -0.614625
 H         1.873767        -0.001535         2.334262
 H         1.832591        -1.619424         1.618727
 H         4.273706        -0.965706         1.364232
 H         2.365491         2.330045         1.519926
 H         3.828522         2.711707         0.399210
 H         2.372059         1.532126        -1.513372
 H         4.068801        -0.343369        -1.192531
