19
Iteration:  1645
 C        -0.051435         0.178602        -0.134877
 C         1.415075         0.071540         0.181732
 C         1.957327        -0.006114         1.665075
 C         3.438478        -0.103147         1.199753
 O         4.113355         1.176532         1.095125
 C         3.289031         1.895494         0.176700
 C         2.586855         0.839682        -0.520451
 C         3.267331        -0.589828        -0.175077
 O         1.996333        -1.170971        -0.249416
 H        -0.648535         0.838768         0.572519
 H        -0.176120         0.611824        -1.127923
 H        -0.483545        -0.793180        -0.084966
 H         1.739271         0.850906         2.323269
 H         1.559421        -1.012217         2.061793
 H         4.104116        -0.785183         1.754279
 H         2.607963         2.658263         0.660428
 H         3.967971         2.503131        -0.489252
 H         2.345828         0.875162        -1.684453
 H         4.106708        -1.204836        -0.623404
