19
Iteration:  3081charge 0 multiplicity 1
 C        -0.008993         0.329353        -0.118211
 C         1.422063         0.041436         0.195612
 C         2.003375        -0.070813         1.609716
 C         3.510618        -0.125531         1.225542
 O         4.000982         1.283879         1.175287
 C         3.287966         1.918187         0.164583
 C         2.557255         0.783249        -0.513276
 C         3.218003        -0.610716        -0.248401
 O         2.023609        -1.300416        -0.278196
 H         0.023647         1.410885        -0.356192
 H        -0.459128        -0.208525        -0.891176
 H        -0.686881         0.102672         0.740073
 H         1.755477         0.689732         2.310413
 H         1.705361        -0.989741         2.205092
 H         4.253140        -0.785937         1.799082
 H         2.406991         2.480535         0.580723
 H         3.917307         2.511378        -0.474847
 H         2.417490         0.908361        -1.587376
 H         4.096301        -0.974941        -0.858083
