19
Iteration:  1228
 C        -0.035450         0.292601        -0.041664
 C         1.439233         0.018085         0.214116
 C         1.932098         0.018614         1.634990
 C         3.519645        -0.148495         1.265325
 O         4.072740         1.168386         1.154603
 C         3.217277         1.930604         0.167393
 C         2.571518         0.782527        -0.595755
 C         3.324407        -0.501169        -0.263928
 O         1.991821        -1.302878        -0.317252
 H        -0.326642         1.350919        -0.022139
 H        -0.289070        -0.094322        -1.147351
 H        -0.673706        -0.299355         0.586417
 H         1.777985         0.977524         2.007652
 H         1.450253        -0.680535         2.355041
 H         4.070847        -0.922206         1.894192
 H         2.443590         2.564081         0.569745
 H         4.030147         2.462240        -0.350083
 H         2.386469         1.150862        -1.560366
 H         4.182244        -1.012984        -0.690620
