19
Iteration:  3791charge 0 multiplicity 1
 C        -0.149764         0.044355        -0.000882
 C         1.347734         0.068655         0.209643
 C         1.900202         0.030950         1.613318
 C         3.437393        -0.153676         1.244240
 O         4.107972         1.128294         1.242949
 C         3.465271         1.857417         0.158737
 C         2.553218         0.914829        -0.563189
 C         3.284361        -0.399420        -0.294849
 O         2.043573        -1.210246        -0.389130
 H        -0.217180         0.782729        -0.746055
 H        -0.523559        -0.913305        -0.373847
 H        -0.618537         0.343705         0.854177
 H         1.758887         0.949030         2.323553
 H         1.360245        -0.756499         2.159573
 H         3.792488        -0.849504         1.894402
 H         3.023562         2.770525         0.524664
 H         4.262287         2.236999        -0.536337
 H         2.320442         1.126531        -1.633094
 H         4.065600        -0.674579        -0.925589
