19
Iteration:  4704
 C         0.018091         0.391332        -0.104855
 C         1.479724         0.027391         0.279827
 C         1.995238         0.014055         1.750484
 C         3.475298        -0.003661         1.275991
 O         4.032945         1.337425         1.029589
 C         3.241507         1.866361        -0.090280
 C         2.625442         0.590274        -0.598040
 C         3.216558        -0.670694        -0.133830
 O         1.958690        -1.301794        -0.137704
 H        -0.508929        -0.465696        -0.433936
 H        -0.558826         0.847681         0.718316
 H        -0.032711         1.079992        -0.877581
 H         1.697193         0.742306         2.465454
 H         1.704295        -1.024633         2.083295
 H         4.109835        -0.441279         2.106171
 H         2.550303         2.734168        -0.017811
 H         3.996431         2.140388        -0.856458
 H         2.354541         0.513954        -1.637158
 H         3.907012        -1.213469        -0.759393
