19
Iteration:  1801
 C        -0.066338         0.245653        -0.071299
 C         1.398735         0.053545         0.210468
 C         1.980735        -0.016917         1.636144
 C         3.532783        -0.026590         1.276696
 O         4.109696         1.172687         1.152139
 C         3.242111         1.903524         0.181243
 C         2.584379         0.785689        -0.608557
 C         3.286778        -0.610733        -0.216707
 O         1.956551        -1.233809        -0.368146
 H        -0.452171         1.052440         0.474782
 H        -0.150447         0.430283        -1.108105
 H        -0.742543        -0.687068         0.180284
 H         1.642936         0.939594         2.267519
 H         1.662356        -0.876115         2.172892
 H         4.245527        -0.643543         1.877230
 H         2.590236         2.394297         0.885729
 H         3.889876         2.595259        -0.346325
 H         2.294726         0.967769        -1.665664
 H         4.158611        -1.143085        -0.576715
