19
Iteration:  4299
 C        -0.135895         0.129923         0.000728
 C         1.358462         0.092254         0.145427
 C         1.934245         0.094525         1.693633
 C         3.454652         0.000572         1.275183
 O         4.184388         1.166520         1.084061
 C         3.357827         1.928691         0.163026
 C         2.636851         0.707166        -0.649668
 C         3.254876        -0.608560        -0.232931
 O         1.977720        -1.206562        -0.276607
 H        -0.386596        -0.827876        -0.435428
 H        -0.767023         0.268396         0.966396
 H        -0.615139         0.788186        -0.789324
 H         1.896090         1.034445         2.223731
 H         1.628983        -0.753055         2.367673
 H         4.029127        -0.666366         1.981280
 H         2.478047         2.516025         0.575991
 H         3.979566         2.607211        -0.477497
 H         2.435173         0.911571        -1.799505
 H         4.109005        -1.307223        -0.674077
