19
Iteration:  4621charge 0 multiplicity 1
 C        -0.162430         0.033127         0.000161
 C         1.433405         0.126692         0.177572
 C         1.918845         0.207681         1.623291
 C         3.430786        -0.055007         1.322551
 O         4.179945         1.190711         1.077085
 C         3.452650         1.814562        -0.008854
 C         2.608209         0.756073        -0.674799
 C         3.243184        -0.541458        -0.114095
 O         1.942310        -1.248248        -0.222484
 H        -0.563562        -0.401583         1.038651
 H        -0.744813         0.947993        -0.022878
 H        -0.466937        -0.632114        -0.906568
 H         1.739662         1.259827         2.080614
 H         1.362008        -0.507744         2.230247
 H         3.965762        -0.490624         2.244317
 H         2.894225         2.701428         0.432568
 H         4.245477         2.219571        -0.684160
 H         2.200392         0.945025        -1.720971
 H         4.029372        -1.158198        -0.671941
