19
Iteration:  4577charge 0 multiplicity 1
 C        -0.119121         0.153995        -0.156726
 C         1.351431         0.050186         0.254064
 C         2.001729         0.143041         1.702194
 C         3.532934        -0.030206         1.316400
 O         4.111563         1.202884         1.114729
 C         3.397032         1.824656        -0.067871
 C         2.516104         0.785039        -0.562023
 C         3.190969        -0.569256        -0.227351
 O         1.982078        -1.278910        -0.131054
 H        -0.815134         0.287466         0.774714
 H        -0.367994         0.948465        -0.868658
 H        -0.337257        -0.825939        -0.668756
 H         1.864654         1.153667         2.222961
 H         1.691375        -0.588409         2.462865
 H         4.301108        -0.742368         1.801757
 H         2.880433         2.770108         0.279333
 H         4.148605         2.070333        -0.856191
 H         2.316528         0.987397        -1.649568
 H         4.071809        -1.071754        -0.727401
