19
Iteration:  3597charge 0 multiplicity 1
 C        -0.091991         0.208380        -0.199851
 C         1.417050         0.060068         0.203328
 C         1.982698        -0.079978         1.719779
 C         3.487311        -0.100693         1.188117
 O         4.122798         1.129600         1.174903
 C         3.306740         1.910317         0.161941
 C         2.565138         0.825163        -0.554531
 C         3.271652        -0.488764        -0.189359
 O         1.940622        -1.170665        -0.288237
 H        -0.183307         0.864342        -1.113815
 H        -0.231156        -0.910598        -0.475901
 H        -0.734737         0.589713         0.612536
 H         1.604579         0.767754         2.392033
 H         1.679814        -1.000784         2.171924
 H         4.282619        -0.566890         1.676694
 H         2.694076         2.497648         0.864785
 H         4.037904         2.529678        -0.304421
 H         2.346437         0.974096        -1.620790
 H         3.933033        -1.037326        -0.735022
