19
Iteration:   587charge 0 multiplicity 1
 C        -0.064763         0.283097         0.100219
 C         1.453251         0.041666         0.138230
 C         1.987852        -0.392029         1.481140
 C         3.511343        -0.253828         1.181570
 O         3.903888         1.130374         1.438390
 C         3.337789         2.015098         0.419049
 C         2.517714         0.923433        -0.490070
 C         3.323635        -0.412078        -0.404027
 O         2.054615        -1.091911        -0.649170
 H        -0.246896         1.318325         0.439448
 H        -0.517474         0.119423        -0.896032
 H        -0.501157        -0.540988         0.731451
 H         1.671447         0.459992         2.176984
 H         1.672349        -1.392024         1.821882
 H         4.284279        -0.835840         1.631694
 H         2.690857         2.733559         0.928579
 H         4.081881         2.534506        -0.263592
 H         2.322936         1.260814        -1.554251
 H         4.108542        -0.673739        -1.153471
