19
Iteration:  1762
 C         0.038700         0.454507         0.019830
 C         1.498007        -0.011670         0.204673
 C         1.992791        -0.157364         1.640154
 C         3.497643        -0.084943         1.193253
 O         3.869658         1.259764         1.273126
 C         3.256810         1.862316         0.122299
 C         2.493688         0.731166        -0.633401
 C         3.310829        -0.538654        -0.281846
 O         2.061546        -1.316671        -0.322372
 H         0.203666         1.622408        -0.077578
 H        -0.321115         0.211230        -1.089218
 H        -0.602940         0.292299         0.834315
 H         1.869247         0.684238         2.215745
 H         1.535483        -1.162255         2.020874
 H         4.270009        -0.663229         1.742376
 H         2.543248         2.642441         0.482582
 H         4.012984         2.512870        -0.455737
 H         2.109861         0.905056        -1.631191
 H         4.121664        -1.142991        -0.823289
