19
Iteration:   573charge 0 multiplicity 1
 C        -0.049332         0.135118         0.055338
 C         1.407998         0.030476         0.079711
 C         2.044231        -0.296394         1.535116
 C         3.470846        -0.239279         1.158247
 O         4.001823         1.068191         1.414680
 C         3.268281         1.936910         0.405933
 C         2.598631         1.043534        -0.483162
 C         3.264363        -0.353001        -0.351468
 O         2.004184        -1.032132        -0.641278
 H        -0.349244         1.246798         0.038932
 H        -0.513796        -0.344496        -0.848082
 H        -0.533159        -0.119599         0.938994
 H         1.820985         0.260652         2.496182
 H         1.685842        -1.441640         1.760821
 H         4.045435        -1.003928         1.719344
 H         2.689220         2.710904         0.899638
 H         4.146678         2.525120        -0.042308
 H         2.453869         1.286649        -1.593804
 H         4.103321        -0.717970        -0.941400
