19
Iteration:  1951
 C         0.017524         0.383809        -0.072733
 C         1.449424        -0.002548         0.192935
 C         2.043322        -0.120433         1.706915
 C         3.466463        -0.147209         1.272907
 O         4.064610         1.198352         1.171475
 C         3.144380         1.925845         0.187870
 C         2.525204         0.805052        -0.624614
 C         3.275281        -0.541718        -0.285168
 O         2.036980        -1.288071        -0.303294
 H        -0.016287         1.464076        -0.324690
 H        -0.147748        -0.038008        -1.002359
 H        -0.843640         0.205625         0.606897
 H         1.699431         0.778486         2.206414
 H         1.569231        -0.985788         2.056389
 H         4.206341        -0.713141         1.839873
 H         2.395224         2.607921         0.672372
 H         3.756605         2.741803        -0.386110
 H         2.304097         0.819315        -1.771225
 H         4.102735        -1.022680        -0.716269
