19
Iteration:  2267charge 0 multiplicity 1
 C        -0.000364         0.394129        -0.015320
 C         1.432410         0.012991         0.241550
 C         1.972238        -0.087351         1.702055
 C         3.468593        -0.178197         1.275413
 O         3.963771         1.261205         1.197818
 C         3.217984         1.902344        -0.030261
 C         2.611460         0.709313        -0.590535
 C         3.312545        -0.573054        -0.181523
 O         2.042416        -1.238219        -0.366954
 H        -0.104954         1.282156         0.701611
 H        -0.220755         0.805552        -0.992445
 H        -0.787828        -0.422814         0.167209
 H         1.773671         0.773373         2.441954
 H         1.404951        -0.945218         2.074422
 H         4.333097        -0.758094         1.666205
 H         2.509848         2.743907         0.279608
 H         3.982810         2.446528        -0.567934
 H         2.364578         0.752363        -1.630889
 H         4.173493        -1.147947        -0.643354
