19
Iteration:   632
 C        -0.029042         0.374675        -0.006375
 C         1.468076         0.018839         0.226078
 C         1.992843        -0.383005         1.553731
 C         3.612517        -0.267294         1.123783
 O         3.948392         1.156563         1.321390
 C         3.155779         1.973155         0.424507
 C         2.538004         0.916200        -0.440057
 C         3.342032        -0.407453        -0.386695
 O         2.012378        -1.157533        -0.579162
 H        -0.532885         0.494537         0.888818
 H         0.013364         1.316922        -0.478218
 H        -0.423150        -0.341528        -0.802898
 H         1.822899         0.304923         2.423347
 H         1.597630        -1.324365         1.714065
 H         4.247960        -0.865670         1.749037
 H         2.357805         2.621188         0.819926
 H         3.889617         2.605681        -0.127244
 H         2.220646         1.325637        -1.378875
 H         4.177342        -0.762796        -1.019877
