19
Iteration:  4932charge 0 multiplicity 1
 C        -0.074074        -0.008936        -0.088935
 C         1.439309         0.023809         0.203599
 C         1.873020         0.334536         1.676522
 C         3.394680        -0.014680         1.263050
 O         4.312427         1.214718         0.946820
 C         3.446733         1.842431         0.037504
 C         2.545489         0.767968        -0.660855
 C         3.182051        -0.602344        -0.112758
 O         1.849726        -1.258520        -0.048076
 H        -0.256245        -0.816757        -0.916496
 H        -0.582192        -0.368278         0.901658
 H        -0.467658         0.925484        -0.455102
 H         1.905698         1.341955         2.076215
 H         1.427017        -0.341890         2.499636
 H         4.102386        -0.615041         1.901976
 H         2.798821         2.600938         0.560945
 H         4.010392         2.291104        -0.782852
 H         2.410931         0.799865        -1.751792
 H         4.078561        -1.165109        -0.623269
