19
Iteration:  3385charge 0 multiplicity 1
 C        -0.029585         0.324406        -0.104844
 C         1.380716         0.081702         0.270291
 C         1.967179        -0.085926         1.723791
 C         3.528185        -0.046384         1.315127
 O         4.024769         1.274369         1.216150
 C         3.365033         1.870955         0.001094
 C         2.555222         0.710183        -0.626617
 C         3.288418        -0.561584        -0.227565
 O         1.947653        -1.307595        -0.298155
 H        -0.808365        -0.150852         0.556554
 H        -0.184041         1.377532        -0.117129
 H        -0.092968         0.028159        -1.225217
 H         1.647977         0.663275         2.338793
 H         1.556246        -0.976981         2.215425
 H         4.237108        -0.600238         1.899813
 H         2.644506         2.631055         0.342949
 H         4.134482         2.290027        -0.700373
 H         2.319005         0.733952        -1.644345
 H         4.030709        -0.922479        -0.956131
