19
Iteration:  2362charge 0 multiplicity 1
 C        -0.156995         0.129380        -0.088716
 C         1.343210         0.040761         0.160969
 C         1.931735         0.104249         1.588914
 C         3.551751        -0.085141         1.233651
 O         4.171690         1.115202         1.092193
 C         3.341323         1.933926         0.257552
 C         2.671846         0.806149        -0.599466
 C         3.242372        -0.479549        -0.219480
 O         1.949929        -1.253445        -0.241481
 H        -0.621437         1.128139         0.169690
 H        -0.404290        -0.095963        -1.074166
 H        -0.645004        -0.636304         0.458654
 H         1.670288         0.909839         2.208911
 H         1.569050        -0.856953         2.113934
 H         4.047019        -0.698337         2.003394
 H         2.646237         2.495462         0.812888
 H         4.005036         2.665972        -0.242097
 H         2.330243         0.978184        -1.725382
 H         4.067477        -1.013550        -0.734747
