19
Iteration:  1518
 C        -0.068094         0.103270        -0.154141
 C         1.381485         0.065550         0.146325
 C         1.948572         0.098103         1.613162
 C         3.463334        -0.095923         1.249473
 O         4.207796         1.068247         1.098582
 C         3.354742         1.940135         0.284888
 C         2.516929         0.844993        -0.557484
 C         3.243299        -0.439189        -0.263122
 O         1.958398        -1.255955        -0.237445
 H        -0.387358         1.106900        -0.503394
 H        -0.137848        -0.695044        -0.966890
 H        -0.761811        -0.464693         0.756107
 H         1.865459         1.122389         2.198102
 H         1.434635        -0.632139         2.231378
 H         3.948997        -0.880998         1.856897
 H         2.803050         2.529320         1.043619
 H         3.910515         2.691444        -0.229723
 H         2.199558         0.933915        -1.551128
 H         4.094424        -0.849776        -0.838671
