19
Iteration:   410
 C        -0.096263         0.227236        -0.029489
 C         1.438334         0.086386         0.174389
 C         2.035664        -0.439161         1.478859
 C         3.550442        -0.291683         1.054624
 O         4.004492         1.031864         1.405198
 C         3.231013         1.987484         0.570075
 C         2.542157         1.016313        -0.283391
 C         3.290649        -0.336180        -0.431789
 O         2.007995        -1.040749        -0.718227
 H        -0.616663         0.286462         1.016882
 H        -0.252692         1.137029        -0.648240
 H        -0.432906        -0.614654        -0.561589
 H         1.957101         0.170500         2.368277
 H         1.705240        -1.410885         1.660751
 H         4.346168        -0.792852         1.607976
 H         2.555133         2.590950         1.151203
 H         3.889807         2.771882         0.093000
 H         2.353253         1.473035        -1.357638
 H         4.097014        -0.412515        -1.121920
