19
Iteration:  1240
 C         0.050043         0.341137        -0.067337
 C         1.457940         0.033330         0.148246
 C         2.005206        -0.022526         1.580558
 C         3.478035        -0.096282         1.226461
 O         4.071749         1.254995         1.221988
 C         3.176255         1.881400         0.188046
 C         2.561792         0.732844        -0.573947
 C         3.273601        -0.596365        -0.219229
 O         1.960237        -1.280630        -0.308335
 H        -0.049959         1.424879        -0.058120
 H        -0.378605        -0.110408        -1.015765
 H        -0.506562         0.031982         0.825265
 H         1.746841         0.742816         2.263083
 H         1.656588        -1.049712         1.953916
 H         4.179836        -0.671051         1.849784
 H         2.513308         2.568747         0.738450
 H         3.699806         2.519069        -0.534115
 H         2.285655         0.742827        -1.599095
 H         4.015450        -1.010106        -0.828159
