19
Iteration:  3016
 C        -0.076714         0.131250         0.010327
 C         1.427893        -0.021274         0.137636
 C         1.966441         0.113966         1.547080
 C         3.417809        -0.113465         1.319498
 O         4.077531         1.203501         1.273723
 C         3.397378         1.861496         0.161564
 C         2.569476         0.835322        -0.666078
 C         3.195696        -0.480846        -0.291124
 O         2.040628        -1.239788        -0.315931
 H        -0.306171         1.045807        -0.621434
 H        -0.376495        -0.794736        -0.558960
 H        -0.565992         0.216692         1.047366
 H         1.686285         1.050437         2.002689
 H         1.576830        -0.799573         2.065055
 H         4.077481        -0.801640         1.972550
 H         2.573829         2.342823         0.740852
 H         4.177149         2.448914        -0.317558
 H         2.283485         1.059814        -1.682666
 H         3.918012        -1.040901        -0.991888
