19
Iteration:  4243
 C        -0.121450         0.145133        -0.118010
 C         1.373657         0.101711         0.250613
 C         2.001583        -0.024617         1.681124
 C         3.553474        -0.054654         1.272842
 O         4.092124         1.200916         1.088969
 C         3.378584         1.917727         0.041839
 C         2.574690         0.768923        -0.518158
 C         3.192050        -0.518353        -0.186669
 O         1.945244        -1.256177        -0.257729
 H        -0.683577        -0.767224         0.199099
 H        -0.504270         1.038981         0.413780
 H        -0.023267         0.286928        -1.244433
 H         1.802165         0.831649         2.343890
 H         1.641633        -0.924893         2.146043
 H         4.251097        -0.688436         1.848704
 H         2.693383         2.743999         0.401240
 H         4.151575         2.419186        -0.623766
 H         2.246415         1.001096        -1.564237
 H         4.100961        -1.024713        -0.694469
