19
Iteration:  4341charge 0 multiplicity 1
 C        -0.075164         0.352629        -0.016187
 C         1.464507         0.001682         0.254657
 C         1.982380         0.001427         1.673948
 C         3.477156        -0.079701         1.209441
 O         3.939228         1.269560         1.218252
 C         3.329685         1.853465        -0.000655
 C         2.571505         0.742332        -0.601867
 C         3.270637        -0.579100        -0.264802
 O         2.057011        -1.330890        -0.273071
 H        -0.603272        -0.460204        -0.567806
 H        -0.423806         0.323117         1.080879
 H        -0.254124         1.432391        -0.429552
 H         1.754351         0.984140         2.064381
 H         1.583268        -0.775351         2.273018
 H         4.127109        -0.769307         1.833549
 H         2.872654         2.809620         0.316673
 H         4.164050         2.208574        -0.695168
 H         2.095278         0.878672        -1.640948
 H         4.201762        -1.104728        -0.803442
