19
Iteration:  3345charge 0 multiplicity 1
 C        -0.051772         0.254415        -0.034575
 C         1.478090         0.100354         0.200172
 C         1.894796         0.126160         1.591068
 C         3.498118        -0.102889         1.297002
 O         4.088212         1.234353         1.154348
 C         3.307147         1.879365         0.107729
 C         2.612491         0.733721        -0.642477
 C         3.233691        -0.579191        -0.247120
 O         1.986100        -1.402636        -0.225958
 H        -0.583384        -0.635685        -0.147683
 H        -0.491026         0.975569         0.708249
 H        -0.342768         0.692708        -0.999918
 H         1.817236         1.205093         2.077130
 H         1.269645        -0.680376         2.037380
 H         4.183478        -0.716323         1.918002
 H         2.607122         2.547895         0.649820
 H         3.988229         2.519041        -0.395760
 H         2.249802         0.859253        -1.657636
 H         4.153334        -0.962978        -0.697201
