19
Iteration:    96
 C        -0.017823         0.308905         0.093308
 C         1.426164         0.071901         0.128150
 C         2.143333        -0.662923         1.333532
 C         3.543737        -0.376628         0.997893
 O         4.024793         0.912357         1.520892
 C         3.022718         1.917052         0.909161
 C         2.429419         1.148514        -0.260720
 C         3.274561        -0.167234        -0.534142
 O         2.126792        -0.861157        -0.969426
 H        -0.423504        -0.052065        -0.987419
 H        -0.415261        -0.295903         0.923373
 H        -0.193282         1.352823         0.269292
 H         1.981724        -0.258143         2.456810
 H         1.917954        -1.711699         1.264976
 H         4.290302        -1.054752         1.346253
 H         2.226621         2.200870         1.587929
 H         3.576170         2.820775         0.458225
 H         2.428772         1.665801        -1.280537
 H         4.028399        -0.293721        -1.274880
