19
Iteration:  1682charge 0 multiplicity 1
 C        -0.108144         0.052728        -0.130559
 C         1.371163         0.001977         0.187518
 C         1.964129         0.170196         1.614657
 C         3.455060        -0.135938         1.159696
 O         4.216560         1.151205         1.190649
 C         3.376692         1.879628         0.294276
 C         2.500040         0.829453        -0.542965
 C         3.200000        -0.482193        -0.250431
 O         1.992432        -1.188447        -0.324067
 H        -0.436702         1.028340         0.033384
 H        -0.263685        -0.298182        -1.126503
 H        -0.682013        -0.672930         0.591001
 H         1.751853         1.246653         2.050220
 H         1.771015        -0.541348         2.354134
 H         3.962275        -0.932545         1.696762
 H         2.738740         2.564292         0.886573
 H         4.060283         2.381855        -0.523160
 H         2.382074         1.138097        -1.520351
 H         3.975543        -1.045126        -0.688229
