19
Iteration:  4652
 C        -0.026708         0.296136        -0.020457
 C         1.482477         0.031349         0.175758
 C         1.943602         0.149718         1.628162
 C         3.463841         0.002899         1.337559
 O         4.072762         1.241242         1.053100
 C         3.306257         1.876437         0.012658
 C         2.622834         0.689479        -0.703071
 C         3.236429        -0.632152        -0.141281
 O         1.953026        -1.386567        -0.168772
 H        -0.654628        -0.621847         0.340313
 H        -0.321600         1.159591         0.601711
 H        -0.378441         0.506513        -1.063840
 H         1.743062         1.086759         2.151478
 H         1.632840        -0.636584         2.294578
 H         4.128960        -0.484188         2.177986
 H         2.613770         2.507246         0.558331
 H         3.898406         2.365551        -0.796321
 H         2.241439         0.815488        -1.723030
 H         4.048765        -1.281744        -0.558270
