19
Iteration:  1024charge 0 multiplicity 1
 C        -0.111944        -0.024045        -0.059002
 C         1.431738         0.028971         0.142582
 C         1.851933         0.027628         1.691275
 C         3.408379        -0.086411         1.244199
 O         4.168175         1.139294         1.260894
 C         3.484598         1.918792         0.194050
 C         2.670897         0.910801        -0.632185
 C         3.187459        -0.476942        -0.282998
 O         1.906928        -1.123746        -0.408562
 H        -0.457693         0.736034        -0.764750
 H        -0.355884        -1.067919        -0.168412
 H        -0.612898         0.081887         1.029468
 H         1.664212         0.866014         2.383784
 H         1.623403        -0.821136         2.175825
 H         3.824224        -0.823671         2.037170
 H         2.819907         2.692425         0.560067
 H         4.309978         2.387862        -0.369597
 H         2.606293         1.157702        -1.712419
 H         4.007437        -0.974817        -0.782734
