19
Iteration:  1686
 C        -0.127106         0.051115        -0.119167
 C         1.347120         0.005602         0.211765
 C         1.952390         0.165405         1.594828
 C         3.492579        -0.149001         1.171395
 O         4.169163         1.145262         1.194080
 C         3.412688         1.898656         0.291643
 C         2.494096         0.837191        -0.567378
 C         3.216704        -0.488778        -0.255400
 O         2.009939        -1.192236        -0.318391
 H        -0.473015         1.159493         0.037373
 H        -0.291610        -0.373202        -1.216589
 H        -0.568615        -0.500976         0.665945
 H         1.806636         1.134734         1.881912
 H         1.699823        -0.617206         2.403498
 H         4.057734        -0.885083         1.794862
 H         2.834406         2.610021         0.864215
 H         4.042017         2.315103        -0.390444
 H         2.234136         1.207306        -1.598862
 H         4.040448        -1.078320        -0.778941
