19
Iteration:  1666
 C        -0.069485         0.053328        -0.156050
 C         1.387259         0.076691         0.202561
 C         1.963778         0.128021         1.684591
 C         3.466716        -0.086748         1.328548
 O         4.243418         1.077064         1.103233
 C         3.298100         1.926133         0.226291
 C         2.559097         0.857117        -0.568092
 C         3.227917        -0.496206        -0.254344
 O         1.923587        -1.243917        -0.325841
 H        -0.652112         0.955457         0.291147
 H        -0.077503         0.090811        -1.279858
 H        -0.471283        -0.824863         0.276796
 H         1.866463         1.064693         2.177971
 H         1.429789        -0.752467         2.208199
 H         4.040971        -0.716289         2.046084
 H         2.615731         2.497009         0.904665
 H         3.897589         2.609700        -0.344485
 H         2.305537         1.069232        -1.717214
 H         4.083593        -0.764690        -0.958477
