19
Iteration:   542charge 0 multiplicity 1
 C        -0.071861         0.078623        -0.109691
 C         1.366586         0.037638         0.162198
 C         1.983150        -0.181893         1.525534
 C         3.488117        -0.274524         1.103427
 O         4.194229         0.983863         1.300634
 C         3.240321         1.954161         0.568460
 C         2.510811         1.078227        -0.349377
 C         3.231808        -0.316361        -0.387112
 O         2.037581        -1.050078        -0.589558
 H        -0.323337         0.801000        -0.984223
 H        -0.480840        -0.976002        -0.349747
 H        -0.724179         0.292268         0.730229
 H         1.991162         0.705007         2.247635
 H         1.572656        -1.116987         2.096104
 H         4.076352        -1.022118         1.661999
 H         2.660811         2.487841         1.308298
 H         3.990130         2.670731        -0.009244
 H         2.292192         1.394422        -1.472677
 H         3.961500        -0.622386        -1.165878
