19
Iteration:  2232
 C         0.030332         0.319093        -0.045837
 C         1.449915         0.025684         0.185153
 C         1.955543        -0.009671         1.581368
 C         3.480396        -0.099201         1.219430
 O         4.101662         1.252292         1.218570
 C         3.211020         1.881364         0.163202
 C         2.586722         0.730045        -0.591345
 C         3.248013        -0.537744        -0.256097
 O         1.990242        -1.312524        -0.259695
 H        -0.036717         1.488978        -0.062094
 H        -0.177734        -0.034759        -0.997081
 H        -0.669804         0.087662         0.732133
 H         1.646393         0.803659         2.160301
 H         1.480144        -1.006481         1.868909
 H         4.012242        -0.894102         1.696959
 H         2.272210         2.344703         0.659735
 H         3.806689         2.520399        -0.457746
 H         2.249324         0.983930        -1.680569
 H         4.116224        -0.985126        -0.722286
