19
Iteration:  3038charge 0 multiplicity 1
 C        -0.062715         0.272747        -0.099677
 C         1.390133         0.025063         0.179302
 C         1.971704         0.019152         1.682763
 C         3.474477        -0.159975         1.172096
 O         4.035310         1.239275         1.166454
 C         3.255752         1.934732         0.190932
 C         2.594669         0.770177        -0.522460
 C         3.294628        -0.548276        -0.222167
 O         2.042591        -1.267129        -0.321018
 H        -0.188288         1.185834        -0.713189
 H        -0.344031        -0.657760        -0.628893
 H        -0.626696         0.274162         0.879313
 H         1.779998         0.830374         2.337913
 H         1.475875        -0.875120         2.124447
 H         4.191399        -0.766430         1.822179
 H         2.676459         2.722336         0.718327
 H         3.978812         2.235568        -0.550979
 H         2.430105         0.817732        -1.578524
 H         4.063513        -1.020030        -0.900177
