19
Iteration:  2960charge 0 multiplicity 1
 C        -0.053684         0.189149        -0.147925
 C         1.436611        -0.016776         0.197452
 C         1.946744        -0.001307         1.648165
 C         3.452559        -0.056092         1.221478
 O         4.117257         1.204226         1.208020
 C         3.337505         1.866963         0.102650
 C         2.547765         0.812770        -0.528457
 C         3.335516        -0.456356        -0.234122
 O         1.907846        -1.276670        -0.256244
 H        -0.213575         1.330778        -0.486546
 H        -0.206823        -0.505706        -0.931217
 H        -0.638163        -0.078220         0.769937
 H         1.703633         0.778227         2.282395
 H         1.601076        -0.924188         2.212721
 H         4.184379        -0.747862         1.679931
 H         2.767930         2.738269         0.596389
 H         4.057828         2.415614        -0.529323
 H         1.971565         1.132372        -1.471442
 H         4.042042        -0.979545        -0.852039
