19
Iteration:  1481
 C        -0.087631         0.183965        -0.074892
 C         1.436478         0.084487         0.199092
 C         1.987237        -0.011190         1.646620
 C         3.472491        -0.073445         1.293948
 O         4.093448         1.160787         1.191716
 C         3.346995         1.931371         0.190820
 C         2.552321         0.746267        -0.611620
 C         3.290462        -0.503169        -0.234392
 O         1.926850        -1.224839        -0.368292
 H        -0.523266         1.125395        -0.504166
 H        -0.256074        -0.551635        -0.846019
 H        -0.665723        -0.006157         0.841468
 H         1.900878         0.891509         2.191113
 H         1.615817        -0.891146         2.207772
 H         4.161917        -0.647391         1.902026
 H         2.591513         2.525374         0.648191
 H         4.176616         2.489508        -0.377556
 H         2.264557         0.787693        -1.741912
 H         4.135494        -0.934169        -0.804114
