19
Iteration:  1060
 C        -0.071531         0.189048        -0.138388
 C         1.361626         0.004884         0.196990
 C         1.940467         0.037166         1.664511
 C         3.472757        -0.120785         1.243466
 O         4.123953         1.175463         1.276572
 C         3.319341         1.818384         0.190555
 C         2.512941         0.836639        -0.534170
 C         3.293608        -0.492154        -0.339602
 O         2.033660        -1.209983        -0.336145
 H        -0.422756         1.134760        -0.629602
 H        -0.505302        -0.567029        -0.768547
 H        -0.598497         0.227306         0.828273
 H         1.722119         0.964805         2.195133
 H         1.665082        -0.787897         2.203982
 H         4.080995        -0.728444         1.822328
 H         2.701628         2.650158         0.601092
 H         4.072604         2.219162        -0.532910
 H         2.423974         1.121794        -1.620565
 H         4.097781        -0.900305        -0.935652
