19
Iteration:  3836
 C        -0.035049         0.303012        -0.060061
 C         1.478077         0.061160         0.255779
 C         2.019178        -0.120515         1.632844
 C         3.479097        -0.112884         1.281409
 O         4.045863         1.204172         1.197979
 C         3.268053         1.865701         0.150983
 C         2.561857         0.751879        -0.598443
 C         3.271154        -0.522199        -0.268844
 O         1.956072        -1.184071        -0.346258
 H        -0.164101         1.267915        -0.567454
 H        -0.136551        -0.393254        -0.867630
 H        -0.770648         0.067298         0.688107
 H         1.626301         0.641926         2.425623
 H         1.666356        -1.040589         2.032591
 H         4.251546        -0.659580         1.873893
 H         2.480751         2.539673         0.506966
 H         3.835833         2.536096        -0.537109
 H         2.230849         1.085103        -1.602331
 H         4.148398        -1.016896        -0.695467
