19
Iteration:   662
 C        -0.065291         0.196367        -0.116261
 C         1.425532         0.008330         0.169783
 C         2.007831        -0.191049         1.580039
 C         3.593944        -0.244126         1.198946
 O         4.123121         1.045421         1.255164
 C         3.206628         1.928089         0.524937
 C         2.474455         0.961725        -0.537048
 C         3.291578        -0.346880        -0.348170
 O         1.987141        -1.103891        -0.529431
 H        -0.674810        -0.549166         0.456443
 H        -0.322761         1.247166         0.150520
 H        -0.287488         0.160007        -1.141122
 H         1.720199         0.616072         2.370265
 H         1.545917        -1.179325         2.011517
 H         4.220865        -0.895751         1.734807
 H         2.405441         2.417608         1.047666
 H         3.819682         2.802317         0.169791
 H         2.193979         1.402104        -1.524589
 H         4.111435        -0.774535        -0.954370
