19
Iteration:  1891charge 0 multiplicity 1
 C        -0.058537         0.217029         0.014585
 C         1.464109         0.081998         0.186254
 C         1.964891        -0.105147         1.609600
 C         3.417295        -0.100777         1.298295
 O         4.003546         1.207004         1.156083
 C         3.344160         1.903611         0.111611
 C         2.610038         0.786650        -0.604517
 C         3.282724        -0.537405        -0.254095
 O         2.004427        -1.176681        -0.323838
 H        -0.277731         1.172865         0.533827
 H        -0.467644         0.301100        -1.071682
 H        -0.694135        -0.519078         0.446114
 H         1.777372         0.637780         2.441334
 H         1.572120        -1.112373         2.060457
 H         4.039538        -0.698599         2.008710
 H         2.534022         2.528576         0.477957
 H         4.065535         2.339800        -0.579848
 H         2.473903         0.877216        -1.616095
 H         4.260680        -0.897866        -0.753911
