19
Iteration:   136charge 0 multiplicity 1
 C         0.011805         0.332268         0.166321
 C         1.510897         0.024408         0.084762
 C         2.147409        -0.598535         1.359431
 C         3.553941        -0.409616         0.947116
 O         3.912146         0.945989         1.534090
 C         3.020576         1.924776         0.831364
 C         2.452882         1.104537        -0.289219
 C         3.255908        -0.155149        -0.525614
 O         2.146689        -0.908091        -0.922034
 H        -0.101282         1.306125        -0.279101
 H        -0.462160        -0.476645        -0.431030
 H        -0.379359         0.400832         1.226281
 H         1.827503        -0.113241         2.255858
 H         1.896539        -1.706920         1.422810
 H         4.258669        -1.241276         1.151237
 H         2.363044         2.419807         1.606688
 H         3.624625         2.662230         0.432995
 H         2.164840         1.654269        -1.259009
 H         4.133049        -0.118681        -1.216034
