19
Iteration:  4740
 C        -0.146480         0.128459         0.051260
 C         1.355016         0.056310         0.175433
 C         1.951297         0.302524         1.616085
 C         3.408248        -0.038796         1.294670
 O         4.081593         1.205972         1.082016
 C         3.398293         1.867912        -0.042114
 C         2.673659         0.701729        -0.637119
 C         3.209592        -0.628404        -0.185509
 O         2.019390        -1.309828        -0.149918
 H        -0.606400        -0.842933        -0.378970
 H        -0.499167         0.252166         1.039764
 H        -0.416254         1.011871        -0.604311
 H         1.938786         1.319660         2.069784
 H         1.651994        -0.384745         2.376174
 H         4.063784        -0.708516         2.009897
 H         2.954001         2.822264         0.326408
 H         4.160851         2.014705        -0.881372
 H         2.575780         0.671389        -1.764030
 H         4.069864        -1.109776        -0.770609
