19
Iteration:   999charge 0 multiplicity 1
 C        -0.168400         0.135172        -0.042841
 C         1.417798         0.106154         0.159450
 C         1.956714         0.034033         1.547404
 C         3.503355        -0.188450         1.245221
 O         4.057629         1.122653         1.257525
 C         3.396618         1.923375         0.175736
 C         2.536749         0.875373        -0.512398
 C         3.238127        -0.499836        -0.231886
 O         2.050569        -1.207096        -0.413635
 H        -0.390027         0.623114        -0.993327
 H        -0.500568        -0.931978         0.153758
 H        -0.694554         0.608375         0.776883
 H         1.846420         0.929530         2.131474
 H         1.513991        -0.845738         2.169863
 H         4.012122        -0.822190         2.018740
 H         2.761960         2.708569         0.619313
 H         4.192504         2.345837        -0.421595
 H         2.526657         0.966890        -1.568709
 H         4.136797        -0.797834        -0.873582
