19
Iteration:  4257
 C        -0.079622         0.155386        -0.160473
 C         1.374256        -0.001038         0.355871
 C         1.986063         0.117062         1.752422
 C         3.448469        -0.124178         1.226745
 O         4.152698         1.208154         1.110922
 C         3.388686         1.860142         0.093566
 C         2.472893         0.844727        -0.587310
 C         3.224360        -0.514365        -0.319515
 O         2.018634        -1.278270        -0.204121
 H        -0.529813        -0.796592        -0.247197
 H        -0.833025         0.841585         0.343034
 H        -0.092382         0.515816        -1.162522
 H         1.807583         1.061066         2.285452
 H         1.608347        -0.773502         2.450064
 H         4.095004        -0.729974         1.906012
 H         2.863882         2.675785         0.645628
 H         4.092883         2.233232        -0.669126
 H         2.157934         0.967355        -1.719615
 H         4.017491        -0.864642        -1.063208
