19
Iteration:  4450charge 0 multiplicity 1
 C        -0.144456         0.006797        -0.067968
 C         1.415141         0.028171         0.253866
 C         1.976859         0.220108         1.644973
 C         3.444654        -0.062339         1.225021
 O         4.126467         1.185823         1.154359
 C         3.486969         1.825350         0.003821
 C         2.568318         0.833762        -0.612251
 C         3.215358        -0.555593        -0.179881
 O         1.942745        -1.214021        -0.213627
 H        -0.494823         0.894834        -0.569174
 H        -0.512595        -0.880043        -0.642785
 H        -0.751205        -0.090874         0.915418
 H         1.850213         1.230808         2.125455
 H         1.437302        -0.549717         2.174296
 H         3.966927        -0.763842         1.868917
 H         2.876702         2.597192         0.497345
 H         4.222437         2.405206        -0.626331
 H         2.256592         1.105638        -1.692420
 H         4.196874        -0.990189        -0.703968
