19
Iteration:    95
 C        -0.025376         0.297561         0.088056
 C         1.428995         0.075523         0.126655
 C         2.140051        -0.657921         1.329147
 C         3.549528        -0.374591         0.998433
 O         4.028386         0.906959         1.520756
 C         3.027193         1.921729         0.907881
 C         2.420972         1.150121        -0.255619
 C         3.278364        -0.168640        -0.531847
 O         2.122947        -0.856668        -0.964971
 H        -0.414662        -0.077433        -0.973180
 H        -0.397344        -0.281348         0.939838
 H        -0.163495         1.354627         0.217426
 H         2.006596        -0.251754         2.450095
 H         1.879144        -1.732108         1.260015
 H         4.289630        -1.066562         1.364956
 H         2.243197         2.219784         1.594048
 H         3.557512         2.785955         0.477883
 H         2.419355         1.684243        -1.289123
 H         4.030351        -0.296975        -1.293164
