19
Iteration:  4886
 C        -0.052590         0.237064        -0.072821
 C         1.379162         0.023312         0.232709
 C         1.985629         0.185556         1.701270
 C         3.496972        -0.010396         1.358384
 O         4.051717         1.329488         1.051480
 C         3.410519         1.852689        -0.226272
 C         2.594220         0.571384        -0.642865
 C         3.236356        -0.643714        -0.106115
 O         1.930670        -1.313705        -0.079054
 H        -0.236300         0.627536        -1.072942
 H        -0.636307        -0.725697         0.269040
 H        -0.287325         1.058973         0.656349
 H         1.719730         1.093062         2.231282
 H         1.547460        -0.645487         2.312054
 H         4.053335        -0.588761         1.989762
 H         2.775236         2.756086         0.013572
 H         4.195603         2.105405        -0.976433
 H         2.243312         0.760607        -1.661219
 H         4.010119        -1.223230        -0.640281
