19
Iteration:  4950charge 0 multiplicity 1
 C        -0.215576         0.083852        -0.058490
 C         1.374282         0.112812         0.240931
 C         2.009516         0.320827         1.601946
 C         3.485813         0.031963         1.349442
 O         4.222161         1.131841         0.958809
 C         3.345337         1.875660        -0.008938
 C         2.611875         0.684129        -0.640176
 C         3.201688        -0.619336        -0.118741
 O         1.993454        -1.302298        -0.111979
 H        -0.483620        -0.730944        -0.666873
 H        -0.847205         0.036477         0.872275
 H        -0.533751         0.997053        -0.594042
 H         1.598185         1.245012         2.000036
 H         1.644127        -0.511951         2.205733
 H         3.954313        -0.449051         2.135965
 H         2.571547         2.456243         0.514634
 H         4.124316         2.400513        -0.614102
 H         2.395680         0.586619        -1.732229
 H         4.087262        -1.120386        -0.456588
