19
Iteration:   906charge 0 multiplicity 1
 C         0.008212         0.218300        -0.019492
 C         1.448206         0.036139         0.124072
 C         1.963057        -0.064924         1.548719
 C         3.456002        -0.195303         1.204702
 O         4.018629         1.164579         1.290577
 C         3.297272         1.921662         0.272083
 C         2.554991         0.912975        -0.525434
 C         3.288706        -0.476324        -0.248215
 O         2.003411        -1.264439        -0.457434
 H        -0.469537        -0.724117         0.097058
 H        -0.169678         0.911608         0.731913
 H        -0.428241         0.604461        -0.982072
 H         1.656590         0.898677         2.179454
 H         1.426130        -0.917747         1.996028
 H         4.167931        -0.829324         1.850790
 H         2.645870         2.646421         0.841709
 H         4.075759         2.443122        -0.378034
 H         2.140371         1.265552        -1.510991
 H         4.113292        -0.872616        -0.830107
