19
Iteration:  3688charge 0 multiplicity 1
 C        -0.058197         0.346601        -0.012574
 C         1.417919         0.001960         0.166299
 C         2.047451        -0.157611         1.629046
 C         3.490607        -0.149534         1.306688
 O         3.995716         1.223609         1.192008
 C         3.278672         1.908539         0.213900
 C         2.537420         0.817130        -0.601821
 C         3.317142        -0.497577        -0.231125
 O         1.992392        -1.208322        -0.426220
 H        -0.335142        -0.323909        -0.892099
 H        -0.807533         0.289910         0.763887
 H        -0.078472         1.384903        -0.484105
 H         1.677061         0.436784         2.478633
 H         1.777720        -1.223982         2.120698
 H         4.153524        -0.920860         1.905542
 H         2.508282         2.522564         0.719924
 H         3.968309         2.464025        -0.442774
 H         2.433705         0.965594        -1.689068
 H         4.226044        -1.007511        -0.773894
