19
Iteration:  4711charge 0 multiplicity 1
 C         0.017577         0.333128        -0.060398
 C         1.425069         0.052523         0.269068
 C         1.930942         0.020365         1.682104
 C         3.493607         0.019168         1.315920
 O         4.056146         1.328333         1.062573
 C         3.278932         1.814742        -0.143223
 C         2.649828         0.620280        -0.598818
 C         3.243521        -0.661425        -0.135728
 O         1.930914        -1.278057        -0.143762
 H        -0.473996        -0.575616        -0.391629
 H        -0.518517         0.716088         0.859603
 H        -0.001053         1.131295        -0.872567
 H         1.664014         0.832341         2.400466
 H         1.831728        -1.003995         2.115449
 H         4.125563        -0.484336         1.927369
 H         2.642165         2.680970         0.194466
 H         3.836481         2.236142        -0.967097
 H         2.335588         0.541766        -1.636673
 H         3.997331        -1.199748        -0.665676
