19
Iteration:  3481
 C        -0.092808         0.189505        -0.184355
 C         1.412512         0.092970         0.257884
 C         1.960838         0.108596         1.695245
 C         3.443400        -0.122196         1.181513
 O         4.110542         1.154668         1.167580
 C         3.367149         1.809063         0.199915
 C         2.466276         0.890553        -0.600086
 C         3.263289        -0.529283        -0.240090
 O         2.046193        -1.300161        -0.274953
 H        -0.632833         0.946179         0.413023
 H        -0.102287         0.333548        -1.200142
 H        -0.598300        -0.732708         0.079714
 H         2.015791         0.932820         2.357547
 H         1.525190        -0.726761         2.299312
 H         4.005866        -0.731040         1.829735
 H         2.735513         2.576208         0.656187
 H         4.015461         2.281034        -0.579966
 H         2.214464         1.182872        -1.601547
 H         4.174605        -0.944692        -0.649322
