19
Iteration:  1439
 C        -0.046147         0.457546         0.033635
 C         1.416290        -0.030273         0.222145
 C         1.996978        -0.147553         1.621098
 C         3.523246        -0.092194         1.249040
 O         3.875444         1.313353         1.272452
 C         3.341985         1.863510         0.051126
 C         2.605675         0.750772        -0.671052
 C         3.287541        -0.527504        -0.249370
 O         2.024355        -1.345383        -0.345430
 H        -0.089136         1.561607         0.349496
 H        -0.327195         0.263465        -0.998490
 H        -0.646921        -0.317776         0.795296
 H         1.533561         0.655447         2.265736
 H         1.699155        -1.073201         2.152482
 H         4.154859        -0.693575         1.906960
 H         2.684162         2.675189         0.399865
 H         4.227711         2.261055        -0.545609
 H         2.377666         0.846967        -1.798605
 H         4.184676        -0.897750        -0.832192
