19
Iteration:  3054charge 0 multiplicity 1
 C        -0.003356         0.292558        -0.153998
 C         1.435590         0.022423         0.253288
 C         2.025390        -0.155184         1.653822
 C         3.525055        -0.103546         1.352491
 O         4.044075         1.204679         1.135234
 C         3.238121         1.878902         0.088905
 C         2.526314         0.801458        -0.574192
 C         3.284675        -0.524960        -0.207261
 O         1.973992        -1.199274        -0.311283
 H         0.090598         1.258066        -0.655081
 H        -0.530477        -0.442179        -0.843488
 H        -0.715081         0.420911         0.654424
 H         1.752414         0.762424         2.313608
 H         1.691245        -1.015644         2.248979
 H         4.169296        -0.641382         1.982073
 H         2.425185         2.451407         0.569915
 H         3.886684         2.627686        -0.453539
 H         2.134393         0.932179        -1.639509
 H         4.134461        -0.919664        -0.710414
