19
Iteration:  3518
 C        -0.035048         0.266993        -0.055878
 C         1.377336         0.060222         0.244372
 C         1.960499        -0.093988         1.695077
 C         3.460172        -0.095791         1.259123
 O         4.042787         1.286996         1.208390
 C         3.352687         1.881623         0.134096
 C         2.617867         0.769713        -0.631694
 C         3.282582        -0.534595        -0.231414
 O         1.950734        -1.264763        -0.394774
 H        -0.133458         1.302796        -0.367292
 H        -0.440821        -0.327235        -0.977886
 H        -0.624700        -0.158811         0.810903
 H         1.655519         0.668936         2.430729
 H         1.737237        -1.069387         2.064510
 H         4.245402        -0.662591         1.872781
 H         2.735626         2.701386         0.569834
 H         4.149852         2.431570        -0.430883
 H         2.276738         1.069767        -1.675211
 H         4.013975        -1.296512        -0.673945
