19
Iteration:   974charge 0 multiplicity 1
 C         0.021183         0.307054        -0.094343
 C         1.480018        -0.003387         0.242232
 C         1.956014        -0.099819         1.637794
 C         3.480104        -0.118495         1.254711
 O         4.011913         1.181967         1.225873
 C         3.289537         1.893645         0.223522
 C         2.519651         0.807734        -0.568716
 C         3.251955        -0.495164        -0.354455
 O         2.016119        -1.239892        -0.376968
 H        -0.082711         0.338355        -1.185992
 H        -0.681336        -0.266453         0.504176
 H        -0.119626         1.293619         0.238994
 H         1.611744         0.777086         2.250015
 H         1.630244        -1.104089         2.203523
 H         4.131384        -0.743379         1.766346
 H         2.424339         2.437199         0.719118
 H         4.013326         2.564214        -0.274359
 H         2.192470         1.134251        -1.585681
 H         4.157822        -0.944057        -0.703641
