19
Iteration:  1987charge 0 multiplicity 1
 C        -0.142565         0.050058        -0.063352
 C         1.383816         0.059461         0.175291
 C         1.984826         0.011821         1.651373
 C         3.469634        -0.120104         1.307473
 O         4.177185         1.182623         1.253938
 C         3.376592         1.921639         0.146448
 C         2.565216         0.846420        -0.630240
 C         3.216695        -0.481044        -0.251441
 O         1.959599        -1.183359        -0.373892
 H        -0.501568         1.020784         0.132492
 H        -0.303674        -0.129468        -1.191937
 H        -0.730095        -0.758788         0.541764
 H         1.825560         1.000898         2.172914
 H         1.543506        -0.720712         2.270439
 H         4.041043        -0.937576         1.910760
 H         2.780520         2.728593         0.653272
 H         4.135813         2.312408        -0.468065
 H         2.415300         1.072998        -1.659438
 H         4.063879        -0.970632        -0.862122
