19
Iteration:  4852
 C         0.021423         0.487566         0.038489
 C         1.469727        -0.005261         0.171337
 C         1.940985         0.127862         1.691043
 C         3.461816         0.010947         1.373084
 O         3.911101         1.331608         1.072640
 C         3.271832         1.776859        -0.262572
 C         2.688463         0.493549        -0.748732
 C         3.288843        -0.663462        -0.053052
 O         1.994879        -1.360686        -0.098828
 H        -0.239838         1.084133        -0.806154
 H        -0.792647        -0.324681         0.077720
 H        -0.124695         1.117946         0.998977
 H         1.895824         0.961079         2.377330
 H         1.727674        -0.804832         2.152246
 H         4.172086        -0.438451         1.927717
 H         2.473963         2.517517         0.002039
 H         4.036304         2.302464        -0.913966
 H         2.285856         0.538973        -1.764317
 H         4.057132        -1.168531        -0.539000
