19
Iteration:   547charge 0 multiplicity 1
 C        -0.085174         0.092671        -0.078249
 C         1.366303         0.104116         0.158200
 C         1.950691        -0.246063         1.568797
 C         3.507527        -0.247409         1.110908
 O         4.161322         0.995486         1.308647
 C         3.278503         1.957851         0.531348
 C         2.517664         1.045314        -0.379260
 C         3.244759        -0.357219        -0.440979
 O         2.061278        -1.043351        -0.597471
 H        -0.475498         0.785803        -0.752981
 H        -0.235538        -0.881972        -0.500450
 H        -0.782621         0.231238         0.814947
 H         1.828657         0.620035         2.174651
 H         1.574570        -1.040434         2.129837
 H         3.969842        -0.998566         1.749701
 H         2.644992         2.533714         1.263751
 H         3.936428         2.659341         0.188890
 H         2.284862         1.299668        -1.337604
 H         4.043473        -0.569247        -1.161341
