19
Iteration:  4315charge 0 multiplicity 1
 C        -0.114760         0.171282         0.045262
 C         1.461994         0.053814         0.169099
 C         1.958207         0.063565         1.625531
 C         3.461024        -0.078599         1.323745
 O         4.117250         1.240535         1.101549
 C         3.323202         1.856037         0.031747
 C         2.679825         0.775300        -0.675730
 C         3.246917        -0.551726        -0.114465
 O         1.919260        -1.237140        -0.322054
 H        -0.568514        -0.788570        -0.316619
 H        -0.367512         0.308723         1.034557
 H        -0.352588         1.064428        -0.495830
 H         1.438324         0.801580         2.302281
 H         1.616535        -0.972425         1.893359
 H         4.010471        -0.702072         2.018423
 H         2.676951         2.523743         0.572713
 H         3.954272         2.543426        -0.496563
 H         2.504032         0.791596        -1.676952
 H         4.017253        -1.034453        -0.569002
