19
Iteration:  2402
 C         0.068779         0.363993        -0.047765
 C         1.464122        -0.047183         0.300846
 C         1.963831        -0.054530         1.667483
 C         3.511197        -0.113244         1.210652
 O         3.930598         1.250404         1.177275
 C         3.245821         1.898005         0.137797
 C         2.560228         0.770347        -0.574506
 C         3.297413        -0.588805        -0.251846
 O         1.967823        -1.297248        -0.327717
 H         0.231167         1.474450        -0.229443
 H        -0.256587        -0.198780        -1.021720
 H        -0.730064         0.278258         0.722875
 H         1.655882         0.882548         2.209909
 H         1.693759        -1.054679         2.083991
 H         4.270562        -0.620453         1.775631
 H         2.677617         2.910996         0.383860
 H         4.083153         2.293914        -0.540622
 H         2.419753         0.922527        -1.634092
 H         3.944103        -0.827373        -1.042671
