19
Iteration:  1107
 C         0.046822         0.411413        -0.068747
 C         1.486659         0.052543         0.169313
 C         2.003345        -0.095175         1.658120
 C         3.509394        -0.119474         1.330987
 O         3.994857         1.223475         1.181529
 C         3.133944         1.846213         0.141673
 C         2.602783         0.682453        -0.665983
 C         3.258717        -0.547937        -0.213135
 O         2.020418        -1.228284        -0.314770
 H        -0.202622         1.448607         0.157286
 H        -0.328435         0.456606        -1.169909
 H        -0.673931        -0.028289         0.497978
 H         1.772660         0.632786         2.401571
 H         1.562545        -1.190903         1.883027
 H         4.344126        -0.603365         1.952036
 H         2.203460         2.293025         0.654203
 H         3.837206         2.610910        -0.324169
 H         2.303060         0.699530        -1.703188
 H         4.147288        -0.942081        -0.836562
