19
Iteration:   106charge 0 multiplicity 1
 C        -0.010873         0.370903         0.150757
 C         1.470582         0.012089         0.123644
 C         2.121558        -0.680733         1.395090
 C         3.561643        -0.361453         0.980570
 O         3.944941         0.970521         1.495227
 C         3.031309         1.868961         0.885786
 C         2.534459         1.104519        -0.305194
 C         3.298621        -0.132286        -0.550675
 O         2.115456        -0.889489        -0.978372
 H        -0.488380         0.434291        -0.942517
 H        -0.665682        -0.390749         0.599507
 H        -0.310701         1.278552         0.617321
 H         1.615673        -0.330327         2.412719
 H         2.014510        -1.774492         1.326157
 H         4.323043        -1.092957         1.178913
 H         2.257793         2.115860         1.607856
 H         3.580164         2.818346         0.734397
 H         2.136062         1.688284        -1.234500
 H         4.196151        -0.160127        -1.138909
