19
Iteration:  3157charge 0 multiplicity 1
 C        -0.115367         0.105718        -0.150444
 C         1.364693         0.125534         0.218191
 C         1.962219         0.051142         1.657850
 C         3.473653        -0.039204         1.309860
 O         4.134706         1.168733         1.167532
 C         3.405400         1.846578         0.109636
 C         2.572022         0.819951        -0.604508
 C         3.185768        -0.505907        -0.236864
 O         1.996373        -1.233653        -0.265549
 H        -0.780963         0.292302         0.745482
 H        -0.301754         0.756525        -0.955586
 H        -0.322094        -0.963855        -0.464244
 H         2.049738         0.895116         2.364730
 H         1.491929        -0.808543         2.335316
 H         4.084697        -0.764057         1.941617
 H         2.726512         2.656203         0.515201
 H         4.180172         2.183868        -0.548093
 H         2.219940         0.991398        -1.652861
 H         4.082093        -0.978662        -0.750394
