19
Iteration:  4381
 C         0.030583         0.311441        -0.093537
 C         1.415946         0.079756         0.262084
 C         1.974912        -0.035745         1.685312
 C         3.535109        -0.121406         1.266385
 O         4.026025         1.303812         1.098026
 C         3.295521         1.879080        -0.027046
 C         2.546631         0.755926        -0.550106
 C         3.264948        -0.628520        -0.174038
 O         1.940467        -1.276260        -0.235743
 H        -0.116403         0.110498        -1.198934
 H        -0.517880        -0.357022         0.469905
 H        -0.321258         1.294897         0.202289
 H         1.645215         0.621800         2.599258
 H         1.795341        -1.120955         2.006827
 H         4.328839        -0.624801         1.912558
 H         2.488312         2.602917         0.289279
 H         3.940058         2.452428        -0.700630
 H         2.203041         0.953748        -1.514763
 H         4.032464        -1.195409        -0.682953
