19
Iteration:  1314
 C        -0.109183         0.182416        -0.012717
 C         1.327386         0.047618         0.184203
 C         1.944316        -0.005622         1.639417
 C         3.441694        -0.138261         1.204071
 O         4.093465         1.274991         1.277346
 C         3.428081         1.921237         0.097085
 C         2.587757         0.778782        -0.583452
 C         3.274134        -0.526348        -0.265089
 O         1.987896        -1.265419        -0.339359
 H        -0.450298         1.152750         0.407620
 H        -0.316335         0.093285        -1.172887
 H        -0.521765        -0.562450         0.617651
 H         1.808635         0.856119         2.200995
 H         1.568422        -0.883447         2.114911
 H         4.141217        -0.777677         1.854082
 H         2.760048         2.670337         0.463293
 H         4.220128         2.428170        -0.560369
 H         2.389190         0.865242        -1.615995
 H         4.074494        -1.048692        -0.870544
