19
Iteration:  2064charge 0 multiplicity 1
 C        -0.003700         0.314212        -0.091103
 C         1.444193        -0.024663         0.194150
 C         1.957465        -0.072310         1.709015
 C         3.519552        -0.183472         1.277278
 O         4.087752         1.282446         1.181305
 C         3.258139         1.951502         0.082895
 C         2.576921         0.803286        -0.587632
 C         3.237079        -0.582172        -0.226152
 O         1.961409        -1.277966        -0.338275
 H        -0.452032         0.738393         0.737811
 H        -0.165885         1.008190        -0.968815
 H        -0.551802        -0.620522        -0.280088
 H         1.818136         0.855781         2.255771
 H         1.510066        -0.824641         2.212525
 H         4.139445        -0.687088         2.108502
 H         2.449966         2.586233         0.540784
 H         3.850494         2.685749        -0.413969
 H         2.421457         0.975748        -1.605705
 H         4.027433        -1.206603        -0.772032
