19
Iteration:  4191
 C        -0.063821         0.403853         0.108213
 C         1.441964        -0.049701         0.141032
 C         2.012808         0.031459         1.596870
 C         3.466485        -0.236405         1.237450
 O         3.927380         1.291910         1.222671
 C         3.273255         1.921462         0.109265
 C         2.498088         0.718918        -0.644515
 C         3.348211        -0.551039        -0.288248
 O         2.081183        -1.333926        -0.310119
 H        -0.390744         0.490369         1.094528
 H         0.104227         1.436969        -0.341326
 H        -0.655989        -0.177946        -0.564486
 H         1.798697         0.999130         2.101017
 H         1.539991        -0.769205         2.373984
 H         4.123146        -0.864429         1.897807
 H         2.548412         2.654282         0.476600
 H         4.015100         2.275863        -0.608020
 H         2.440988         0.882935        -1.832841
 H         4.318724        -1.061940        -0.713665
