19
Iteration:  3243charge 0 multiplicity 1
 C         0.042081         0.333978        -0.012579
 C         1.470684        -0.046198         0.206907
 C         1.919466         0.156922         1.637511
 C         3.469321        -0.076135         1.353331
 O         3.974328         1.239835         1.202605
 C         3.299585         1.836860        -0.011208
 C         2.572873         0.712474        -0.687077
 C         3.291309        -0.590128        -0.233002
 O         1.998669        -1.317634        -0.267124
 H        -0.685958        -0.516811         0.129987
 H        -0.419384         1.007087         0.643103
 H        -0.056468         0.791636        -1.013603
 H         1.662656         0.913061         2.302120
 H         1.648191        -0.835392         2.166960
 H         4.167391        -0.590027         2.047326
 H         2.598080         2.570864         0.370910
 H         4.121522         2.374168        -0.488208
 H         2.264422         0.815679        -1.750962
 H         4.054146        -1.159442        -0.814312
