19
Iteration:  1500charge 0 multiplicity 1
 C        -0.125967         0.063968        -0.153524
 C         1.361460         0.049845         0.199590
 C         1.964319         0.101609         1.651953
 C         3.494669        -0.155661         1.233987
 O         4.230605         1.188649         1.123352
 C         3.315168         1.898413         0.264131
 C         2.612506         0.892554        -0.560584
 C         3.196457        -0.600985        -0.220893
 O         1.961295        -1.174034        -0.298159
 H        -0.489854         1.009035        -0.470575
 H        -0.454381        -0.660567        -0.943860
 H        -0.697644        -0.044177         0.632002
 H         1.691707         0.980159         2.186801
 H         1.653143        -0.901535         2.066655
 H         4.090964        -0.770755         1.891246
 H         2.571771         2.545508         0.840287
 H         3.902108         2.499370        -0.415547
 H         2.625386         1.270142        -1.586229
 H         3.926428        -1.093497        -0.772636
