19
Iteration:  4525charge 0 multiplicity 1
 C         0.027824         0.454326        -0.002111
 C         1.434714         0.059861         0.185322
 C         2.007384         0.135690         1.571902
 C         3.472490        -0.087297         1.264815
 O         3.973259         1.331523         1.124810
 C         3.163206         1.813872         0.031724
 C         2.569815         0.548470        -0.689409
 C         3.301614        -0.668243        -0.156653
 O         2.026963        -1.416212        -0.172746
 H        -0.114201         1.068038         0.868718
 H        -0.135714         1.111928        -0.769615
 H        -0.752989        -0.347612        -0.064291
 H         2.114171         1.095525         2.262856
 H         1.686495        -0.740712         2.170700
 H         4.177133        -0.596492         1.926401
 H         2.340058         2.544037         0.265073
 H         3.900178         2.528616        -0.389086
 H         2.381116         0.668408        -1.820815
 H         4.378043        -1.004416        -0.544384
