19
Iteration:   501charge 0 multiplicity 1
 C        -0.051539         0.167400        -0.087423
 C         1.407794         0.050337         0.219597
 C         2.018670        -0.320148         1.545506
 C         3.533617        -0.328651         1.093743
 O         4.123286         1.051516         1.303987
 C         3.183720         1.982071         0.555966
 C         2.517466         1.024783        -0.371988
 C         3.250087        -0.337238        -0.403935
 O         2.023019        -1.031611        -0.597660
 H        -0.210615        -0.333404        -1.024718
 H        -0.809647        -0.252605         0.601282
 H        -0.178815         1.243392        -0.369543
 H         1.818603         0.353658         2.386610
 H         1.623320        -1.223126         1.750177
 H         4.111755        -1.168188         1.468512
 H         2.544924         2.552272         1.265161
 H         3.715681         2.757923         0.027318
 H         2.291590         1.516063        -1.363522
 H         4.145596        -0.562933        -1.056513
