19
Iteration:  3827
 C        -0.004778         0.159561        -0.105115
 C         1.416386         0.114445         0.216691
 C         2.018773        -0.071804         1.711705
 C         3.500152        -0.131339         1.321674
 O         4.058181         1.231756         1.248271
 C         3.313913         1.867822         0.136835
 C         2.564453         0.810411        -0.611748
 C         3.227391        -0.509667        -0.323319
 O         1.912030        -1.214669        -0.367438
 H        -0.183294         1.235575        -0.505088
 H        -0.426573        -0.541396        -0.798067
 H        -0.800183         0.276770         0.719210
 H         1.978852         0.706785         2.564975
 H         1.692981        -1.061011         1.977550
 H         4.330445        -0.734476         1.954188
 H         2.580408         2.592798         0.576054
 H         4.138635         2.271426        -0.488469
 H         2.329444         1.054135        -1.668207
 H         4.103997        -0.883263        -0.977660
