19
Iteration:  3466
 C        -0.063834         0.141902        -0.129057
 C         1.361187         0.040179         0.158558
 C         1.939320         0.070936         1.663672
 C         3.435067        -0.109562         1.324343
 O         4.217111         1.138826         1.136638
 C         3.325403         1.939766         0.161888
 C         2.619867         0.777219        -0.563199
 C         3.225423        -0.497581        -0.255523
 O         1.977049        -1.227707        -0.262063
 H        -0.643474         0.711107         0.643550
 H        -0.354858         0.686284        -1.117484
 H        -0.550439        -0.860349        -0.165781
 H         1.597662         1.130600         2.092286
 H         1.519553        -0.789822         2.205785
 H         4.044669        -0.865923         1.875720
 H         2.628800         2.606699         0.742634
 H         3.984869         2.580930        -0.425315
 H         2.303958         0.928263        -1.669603
 H         3.969148        -0.999153        -0.894311
