19
Iteration:  4569charge 0 multiplicity 1
 C        -0.085837         0.216848        -0.108860
 C         1.418908         0.055863         0.209859
 C         2.006494         0.120547         1.754670
 C         3.438648        -0.044834         1.268961
 O         4.128359         1.267412         1.061228
 C         3.359257         1.844498        -0.029850
 C         2.525856         0.691440        -0.559480
 C         3.206919        -0.566879        -0.152694
 O         1.977218        -1.290970        -0.175879
 H        -0.786463         0.402187         0.663888
 H        -0.228200         0.935342        -0.854002
 H        -0.346795        -0.757361        -0.616538
 H         1.813100         1.060879         2.389707
 H         1.759316        -0.850889         2.227353
 H         4.096622        -0.563938         1.922300
 H         2.969976         2.756056         0.466724
 H         3.898500         2.215971        -0.903244
 H         2.464900         0.658877        -1.698062
 H         3.933664        -1.224698        -0.742917
