19
Iteration:  3654charge 0 multiplicity 1
 C        -0.106765         0.121152         0.044495
 C         1.418880         0.059076         0.146236
 C         1.970708         0.049363         1.656495
 C         3.416382        -0.213729         1.242346
 O         4.023649         1.179094         1.274986
 C         3.403044         1.896458         0.252963
 C         2.594008         0.851195        -0.667953
 C         3.302434        -0.467262        -0.329811
 O         2.024455        -1.214800        -0.406024
 H        -0.341563        -0.198289        -1.046550
 H        -0.700795        -0.489433         0.730615
 H        -0.482886         1.199616         0.038736
 H         1.846483         1.079549         2.059287
 H         1.447907        -0.837182         2.142687
 H         3.995415        -0.990699         1.803645
 H         2.697898         2.682802         0.621595
 H         4.081087         2.509394        -0.344411
 H         2.386685         1.238204        -1.637628
 H         4.026082        -1.115733        -0.801808
