19
Iteration:  2488
 C        -0.156705         0.097016        -0.150657
 C         1.374967         0.053670         0.185647
 C         1.996156         0.122383         1.581413
 C         3.467120        -0.125700         1.228828
 O         4.161003         1.165799         1.116561
 C         3.367781         1.848554         0.196866
 C         2.527936         0.839093        -0.553599
 C         3.252775        -0.560979        -0.210634
 O         2.025792        -1.180551        -0.215626
 H        -0.672582         0.764024         0.528975
 H        -0.488403         0.441421        -1.192812
 H        -0.592889        -0.856028         0.158729
 H         1.837531         1.091133         2.221048
 H         1.711194        -0.569883         2.375285
 H         3.897506        -0.853117         1.907390
 H         2.725520         2.603599         0.633715
 H         4.097538         2.300785        -0.462391
 H         2.216923         1.084135        -1.530907
 H         4.032280        -0.995721        -0.783106
