19
Iteration:  3703charge 0 multiplicity 1
 C        -0.035480         0.420593        -0.165954
 C         1.427614         0.010544         0.270916
 C         1.950007        -0.233310         1.766395
 C         3.525640        -0.128970         1.202231
 O         4.063149         1.216395         1.219008
 C         3.200740         1.932573         0.187783
 C         2.543891         0.767834        -0.517983
 C         3.280321        -0.517535        -0.283673
 O         2.065479        -1.265289        -0.428262
 H        -0.569030        -0.141879        -0.848508
 H        -0.600823         0.334979         0.776226
 H        -0.108368         1.431792        -0.408283
 H         1.822465         0.701793         2.303547
 H         1.583112        -1.232737         2.063798
 H         4.287136        -0.607281         1.791248
 H         2.476416         2.636369         0.620842
 H         3.848901         2.574656        -0.473149
 H         2.086017         1.032002        -1.499235
 H         4.114917        -0.911557        -0.888450
