19
Iteration:  1557
 C        -0.084930         0.255352        -0.064002
 C         1.443951        -0.003697         0.199013
 C         2.031836        -0.017105         1.615979
 C         3.466070        -0.159715         1.288951
 O         4.030351         1.261552         1.235892
 C         3.377343         1.956092         0.096770
 C         2.567124         0.747908        -0.554508
 C         3.286546        -0.552863        -0.234204
 O         1.916861        -1.259822        -0.344557
 H        -0.381768         1.235437         0.407342
 H        -0.309096         0.280123        -1.124803
 H        -0.614834        -0.535727         0.291856
 H         1.780999         0.760096         2.300083
 H         1.575115        -0.945917         2.121229
 H         4.153181        -0.685792         1.968345
 H         2.716129         2.814166         0.456746
 H         4.121613         2.518942        -0.605461
 H         2.364777         0.820288        -1.713111
 H         4.088208        -0.940123        -0.929660
