19
Iteration:  1644
 C        -0.053515         0.178552        -0.132584
 C         1.415624         0.066697         0.181603
 C         1.961061        -0.006143         1.667307
 C         3.431819        -0.098118         1.198072
 O         4.114961         1.177100         1.107029
 C         3.285084         1.902758         0.163589
 C         2.592507         0.837609        -0.520770
 C         3.270962        -0.587837        -0.176169
 O         1.990918        -1.177040        -0.248876
 H        -0.635565         0.852769         0.610952
 H        -0.155392         0.661856        -1.153739
 H        -0.483982        -0.772546        -0.083333
 H         1.773356         0.821132         2.307352
 H         1.553129        -1.035255         2.040358
 H         4.099737        -0.785753         1.754837
 H         2.595381         2.647999         0.654458
 H         3.939734         2.458885        -0.498345
 H         2.363759         0.882267        -1.680191
 H         4.122874        -1.188259        -0.646888
