19
Iteration:   165charge 0 multiplicity 1
 C        -0.133151         0.129106         0.002808
 C         1.432637         0.020393         0.126800
 C         2.069842        -0.629136         1.430225
 C         3.564447        -0.380542         1.027101
 O         4.043906         0.935162         1.504029
 C         3.197704         1.959380         0.789016
 C         2.483164         1.167217        -0.284109
 C         3.258795        -0.138006        -0.582083
 O         2.072724        -0.781408        -0.813493
 H        -0.397852         1.091542         0.340562
 H        -0.337756         0.000940        -1.068092
 H        -0.567834        -0.686072         0.638677
 H         1.839886        -0.058304         2.302986
 H         1.842877        -1.696308         1.582386
 H         4.207979        -1.219644         1.389844
 H         2.592753         2.477464         1.537987
 H         3.933804         2.706538         0.256329
 H         2.238593         1.670146        -1.143113
 H         4.008652        -0.215412        -1.405156
