19
Iteration:  1706
 C        -0.111266         0.148500         0.005002
 C         1.468005         0.067583         0.153923
 C         1.957985        -0.001277         1.650231
 C         3.416170        -0.165259         1.260757
 O         4.064814         1.164680         1.239166
 C         3.374975         1.940224         0.110888
 C         2.579896         0.876583        -0.559233
 C         3.242191        -0.457149        -0.321555
 O         2.005846        -1.264118        -0.325181
 H        -0.416742         1.207737        -0.255504
 H        -0.297023        -0.542704        -0.930835
 H        -0.728947        -0.242049         0.822065
 H         1.867998         0.898705         2.279805
 H         1.456971        -0.894452         2.148797
 H         4.032596        -0.887899         1.845656
 H         2.741989         2.689441         0.574806
 H         4.200259         2.265520        -0.552996
 H         2.520541         1.089507        -1.569291
 H         4.063545        -0.839868        -0.977649
