19
Iteration:  2098
 C        -0.023728         0.496901        -0.075067
 C         1.433554         0.007220         0.178517
 C         1.989954        -0.107436         1.681288
 C         3.527113        -0.183006         1.252024
 O         3.949037         1.252141         1.188239
 C         3.186743         1.881711         0.107632
 C         2.547136         0.762353        -0.632356
 C         3.326328        -0.563364        -0.275411
 O         2.098590        -1.329263        -0.233539
 H        -0.181335         1.341734         0.602108
 H        -0.193305         0.851344        -1.153205
 H        -0.767305        -0.219749         0.135905
 H         1.878645         0.746644         2.293285
 H         1.577970        -0.963954         2.164568
 H         4.154434        -0.847442         1.930311
 H         2.301623         2.369598         0.587583
 H         3.794848         2.525944        -0.467692
 H         2.416557         0.986416        -1.702589
 H         4.119878        -1.032545        -0.896415
