19
Iteration:  4440
 C        -0.088410         0.063845        -0.013634
 C         1.381017         0.009018         0.206601
 C         1.955950         0.258198         1.606774
 C         3.418682        -0.058138         1.251577
 O         4.138622         1.113467         1.183137
 C         3.420043         1.899423         0.078167
 C         2.534933         0.799613        -0.659958
 C         3.213165        -0.504760        -0.256218
 O         1.978130        -1.275371        -0.195708
 H        -0.539201         0.773695        -0.685654
 H        -0.135695        -0.965450        -0.543269
 H        -0.639967         0.109280         1.000284
 H         1.825043         1.321502         1.812002
 H         1.709952        -0.300337         2.484761
 H         3.987202        -0.745018         1.841862
 H         2.865006         2.742004         0.496120
 H         4.309919         2.196018        -0.530232
 H         2.338394         0.973738        -1.789471
 H         4.092047        -1.061004        -0.834191
