19
Iteration:  2950charge 0 multiplicity 1
 C         0.007946         0.282185        -0.144061
 C         1.413302         0.003711         0.224690
 C         2.008243        -0.013831         1.617986
 C         3.511591        -0.140584         1.239808
 O         4.051130         1.236375         1.200420
 C         3.345709         1.952600         0.141819
 C         2.480099         0.820204        -0.556368
 C         3.263854        -0.524151        -0.263636
 O         1.967239        -1.352665        -0.226295
 H        -0.394882         1.353810        -0.409224
 H        -0.253735        -0.251180        -1.048521
 H        -0.754430        -0.120795         0.587445
 H         1.852930         0.891237         2.131600
 H         1.601162        -0.925184         2.143689
 H         4.075683        -0.852756         1.904798
 H         2.600093         2.679873         0.584867
 H         4.000803         2.455358        -0.620423
 H         2.157073         1.054657        -1.605131
 H         4.161665        -0.927165        -0.764905
