19
Iteration:  2538charge 0 multiplicity 1
 C        -0.090611         0.203943        -0.115328
 C         1.419383         0.003236         0.197906
 C         1.995670         0.057503         1.689363
 C         3.549946        -0.119790         1.290459
 O         4.104387         1.147375         1.150469
 C         3.296870         1.926501         0.100745
 C         2.524022         0.818298        -0.592155
 C         3.257746        -0.533742        -0.206095
 O         1.963803        -1.235025        -0.289285
 H        -0.656653         1.084995         0.294554
 H        -0.218693         0.094898        -1.174555
 H        -0.646115        -0.710096         0.306462
 H         2.024554         0.969283         2.273776
 H         1.334330        -0.623464         2.257868
 H         4.263232        -0.736143         1.871589
 H         2.683622         2.798066         0.688156
 H         4.000473         2.392720        -0.619524
 H         2.332318         0.986802        -1.658496
 H         4.064582        -1.065642        -0.789996
