19
Iteration:   449
 C         0.035495         0.350850         0.152452
 C         1.443904        -0.002672         0.106544
 C         2.039572        -0.475025         1.470057
 C         3.547423        -0.269377         1.112569
 O         3.792434         1.092445         1.451617
 C         3.233679         1.963102         0.487045
 C         2.519569         0.967778        -0.459129
 C         3.366434        -0.317298        -0.415079
 O         2.063666        -1.073873        -0.756115
 H        -0.449450        -0.326249         0.779628
 H         0.004814         1.238229         0.748944
 H        -0.581666         0.535109        -0.799665
 H         1.930990         0.183489         2.344438
 H         1.574090        -1.493949         1.709847
 H         4.172554        -0.981921         1.620279
 H         2.636353         2.687486         1.126950
 H         3.989826         2.482937        -0.076288
 H         2.250908         1.320065        -1.362862
 H         4.242759        -0.488420        -1.078747
