19
Iteration:  3632
 C        -0.077985         0.092983        -0.088249
 C         1.359452         0.032208         0.143930
 C         1.864656         0.024897         1.621845
 C         3.501813        -0.120137         1.230893
 O         4.171712         1.126497         1.223745
 C         3.420924         1.908755         0.179598
 C         2.489535         0.880976        -0.468738
 C         3.283062        -0.475950        -0.217871
 O         1.982572        -1.186845        -0.394177
 H        -0.378824         0.146638        -1.187547
 H        -0.480882        -0.842901         0.281347
 H        -0.614257         0.880456         0.482367
 H         1.780875         1.076632         1.991602
 H         1.571119        -0.760885         2.361520
 H         3.935612        -0.916470         1.800845
 H         2.864845         2.693730         0.719251
 H         3.986809         2.390299        -0.586413
 H         2.420906         1.101598        -1.504504
 H         4.058278        -0.865468        -0.841892
