19
Iteration:  3279charge 0 multiplicity 1
 C        -0.101431         0.121903        -0.147696
 C         1.358573         0.015698         0.234110
 C         1.979523         0.067030         1.693091
 C         3.499907        -0.067877         1.347108
 O         4.087721         1.191431         1.159006
 C         3.473799         1.936657        -0.018992
 C         2.539843         0.779218        -0.638525
 C         3.236687        -0.542644        -0.172644
 O         1.927318        -1.225414        -0.197018
 H        -0.486827        -0.773552        -0.491727
 H        -0.564762         0.552435         0.728787
 H        -0.135109         0.831148        -1.003911
 H         1.669187         0.930680         2.366174
 H         1.569677        -0.910406         1.922293
 H         4.122041        -0.676373         1.986867
 H         2.899145         2.843351         0.198225
 H         4.261493         2.227575        -0.643266
 H         2.282788         0.902018        -1.631773
 H         4.004030        -1.039611        -0.766366
