19
Iteration:  1844
 C        -0.107900        -0.004872        -0.068883
 C         1.360820         0.028685         0.262996
 C         1.930865         0.153271         1.642786
 C         3.456355        -0.119686         1.230793
 O         4.129757         1.060421         1.195032
 C         3.466916         1.901098         0.153647
 C         2.533847         0.941176        -0.601368
 C         3.240937        -0.458571        -0.300930
 O         2.019942        -1.162290        -0.272880
 H        -0.848688         0.442230         0.537036
 H        -0.237427         0.326903        -1.073481
 H        -0.440576        -1.148577        -0.218367
 H         1.597733         1.154515         2.116390
 H         1.538163        -0.571939         2.270508
 H         3.931251        -0.858359         1.924068
 H         2.915767         2.722540         0.533072
 H         4.210749         2.115970        -0.478245
 H         2.172818         1.241831        -1.636721
 H         3.896300        -1.022680        -0.945808
