19
Iteration:   967
 C         0.046236         0.373668        -0.089029
 C         1.454982         0.021462         0.273199
 C         1.965029        -0.137806         1.622747
 C         3.529671        -0.099787         1.227928
 O         4.009827         1.205040         1.227145
 C         3.243495         1.899636         0.234233
 C         2.557094         0.816796        -0.552516
 C         3.227847        -0.547189        -0.324147
 O         2.018564        -1.264151        -0.387433
 H        -0.135671         0.049231        -1.139615
 H        -0.759302        -0.271627         0.401947
 H         0.011779         1.488408        -0.003758
 H         1.618624         0.625585         2.262720
 H         1.682062        -1.143508         1.991195
 H         4.063342        -0.714216         2.001049
 H         2.387028         2.400508         0.702701
 H         3.855707         2.617248        -0.271407
 H         2.157521         0.996487        -1.517212
 H         4.082351        -0.962137        -0.964885
