19
Iteration:  3824
 C        -0.029906         0.144495        -0.119578
 C         1.397462         0.106763         0.202418
 C         2.024258        -0.058768         1.739144
 C         3.526143        -0.133670         1.311240
 O         4.049908         1.236787         1.257632
 C         3.334210         1.874452         0.138021
 C         2.565773         0.843083        -0.600614
 C         3.221441        -0.519610        -0.331845
 O         1.912407        -1.221780        -0.369813
 H        -0.176539         1.123338        -0.535101
 H        -0.447914        -0.590113        -0.774913
 H        -0.608403         0.243286         0.754226
 H         2.000541         0.749293         2.553674
 H         1.673839        -1.041131         1.990250
 H         4.151189        -0.767425         1.898748
 H         2.726716         2.656957         0.583685
 H         4.202009         2.254941        -0.436087
 H         2.349796         0.975138        -1.685141
 H         3.961996        -0.860267        -1.011161
