19
Iteration:  4210charge 0 multiplicity 1
 C        -0.009947         0.318607         0.157425
 C         1.458623         0.052754         0.184346
 C         1.955373        -0.001110         1.587467
 C         3.466523        -0.053442         1.291454
 O         3.946893         1.237332         1.185228
 C         3.277797         1.863472         0.034611
 C         2.675804         0.709972        -0.644775
 C         3.253818        -0.567434        -0.259140
 O         2.028573        -1.312172        -0.353954
 H        -0.530279        -0.081642         1.074239
 H        -0.178658         1.375277        -0.075057
 H        -0.539865        -0.133344        -0.785477
 H         1.692807         0.904659         2.193909
 H         1.485368        -0.856053         2.071827
 H         4.140535        -0.583410         1.948353
 H         2.490093         2.513691         0.497312
 H         4.170184         2.383578        -0.388470
 H         2.313037         0.933357        -1.663944
 H         4.121162        -1.073254        -0.787122
