19
Iteration:  3382charge 0 multiplicity 1
 C        -0.057295         0.301369        -0.116491
 C         1.410055         0.074242         0.274967
 C         1.967493        -0.086609         1.713430
 C         3.513455        -0.043748         1.328345
 O         4.021882         1.271862         1.193944
 C         3.374746         1.848697         0.019098
 C         2.577849         0.697840        -0.627629
 C         3.295082        -0.532688        -0.212966
 O         1.933299        -1.283007        -0.301399
 H        -0.851631        -0.121813         0.537164
 H        -0.161830         1.396672        -0.005123
 H         0.046835         0.162293        -1.183511
 H         1.659833         0.687281         2.404161
 H         1.567025        -0.982682         2.187174
 H         4.307873        -0.605278         1.825133
 H         2.571167         2.535530         0.305270
 H         4.058158         2.315244        -0.748309
 H         2.165656         0.730231        -1.703519
 H         4.082858        -0.986431        -0.831569
