19
Iteration:  2717charge 0 multiplicity 1
 C        -0.083340         0.206395        -0.009816
 C         1.413908         0.012656         0.225735
 C         1.995079         0.052174         1.638276
 C         3.513449        -0.063873         1.249946
 O         3.980954         1.219616         1.242859
 C         3.377467         1.880214         0.068890
 C         2.487690         0.736161        -0.590133
 C         3.313094        -0.527897        -0.206547
 O         1.988469        -1.256233        -0.365510
 H        -0.400110         1.168506         0.427128
 H        -0.031406         0.528660        -1.087025
 H        -0.685641        -0.620835         0.292358
 H         1.894566         0.938641         2.305867
 H         1.550007        -0.834507         2.046744
 H         4.221959        -0.643820         1.902042
 H         2.837531         2.757128         0.360287
 H         4.189619         2.127694        -0.590388
 H         2.336386         0.673962        -1.744288
 H         4.070033        -0.997694        -0.855995
