19
Iteration:  2447charge 0 multiplicity 1
 C        -0.000843         0.312653         0.054413
 C         1.444353         0.012159         0.152709
 C         1.969062        -0.062323         1.631479
 C         3.425485        -0.100502         1.269293
 O         3.929305         1.267192         1.166577
 C         3.335233         1.878310         0.052557
 C         2.630580         0.735708        -0.566201
 C         3.285607        -0.600371        -0.231468
 O         2.010190        -1.225731        -0.330435
 H        -0.026791         1.437141         0.464836
 H        -0.275837         0.256190        -1.063848
 H        -0.603418        -0.355627         0.657844
 H         1.763710         0.747217         2.344707
 H         1.534809        -1.104778         1.970765
 H         4.127984        -0.523067         1.986034
 H         2.603767         2.753232         0.497412
 H         4.053423         2.431330        -0.676525
 H         2.362031         0.881636        -1.690926
 H         4.058813        -1.232636        -0.617785
