19
Iteration:  4750
 C        -0.136086         0.044779         0.064860
 C         1.368784         0.079869         0.218435
 C         1.917018         0.345588         1.574132
 C         3.422618        -0.024791         1.218817
 O         4.133710         1.185007         1.125788
 C         3.494031         1.784941        -0.070654
 C         2.562337         0.719148        -0.621719
 C         3.261301        -0.600655        -0.191101
 O         1.980979        -1.287222        -0.134148
 H        -0.481112        -0.884560        -0.514555
 H        -0.631690         0.122319         0.983154
 H        -0.518872         0.916294        -0.488733
 H         1.809348         1.445051         1.707266
 H         1.399153        -0.103787         2.418736
 H         3.983683        -0.804109         1.971111
 H         2.791579         2.543588         0.399651
 H         4.208968         2.415078        -0.706675
 H         2.472788         1.031675        -1.697743
 H         4.160663        -1.174689        -0.642113
