19
Iteration:  1051charge 0 multiplicity 1
 C        -0.145176         0.132806        -0.076248
 C         1.432442         0.076207         0.184926
 C         1.906262         0.036582         1.610156
 C         3.443694        -0.152664         1.218659
 O         4.117025         1.151994         1.220453
 C         3.374866         1.835326         0.223152
 C         2.526070         0.841502        -0.546344
 C         3.311175        -0.478487        -0.258459
 O         2.021059        -1.160865        -0.351665
 H        -0.525979         0.949817        -0.735851
 H        -0.340988        -0.862993        -0.657191
 H        -0.784254         0.019050         0.709387
 H         1.902573         0.943882         2.194997
 H         1.508989        -0.890710         2.295330
 H         3.961890        -0.762630         1.914848
 H         2.957615         2.841322         0.536954
 H         4.150086         2.228424        -0.522282
 H         2.250328         1.191397        -1.578167
 H         4.227529        -0.945927        -0.721025
