19
Iteration:   314charge 0 multiplicity 1
 C        -0.025500         0.223896         0.073496
 C         1.482610         0.036226         0.129821
 C         2.070257        -0.524617         1.454981
 C         3.539561        -0.339659         1.053484
 O         3.916039         0.978506         1.437322
 C         3.205615         1.983317         0.586495
 C         2.448231         1.128035        -0.305679
 C         3.348998        -0.271657        -0.439989
 O         2.044582        -0.949723        -0.800929
 H        -0.268725         0.800574        -0.884337
 H        -0.526104        -0.756050         0.128145
 H        -0.235819         0.843762         0.901270
 H         1.862032         0.104307         2.388614
 H         1.773109        -1.531736         1.578083
 H         4.207224        -1.108123         1.510523
 H         2.592083         2.576950         1.407606
 H         3.934063         2.671568         0.289924
 H         2.109540         1.719310        -1.319731
 H         4.050571        -0.542534        -1.218882
