19
Iteration:  3520charge 0 multiplicity 1
 C        -0.055614         0.286092        -0.043105
 C         1.387826         0.072177         0.240165
 C         1.968218        -0.098435         1.679399
 C         3.472944        -0.081165         1.278499
 O         4.026013         1.271584         1.194155
 C         3.347334         1.894444         0.136594
 C         2.619066         0.745738        -0.632687
 C         3.282479        -0.540366        -0.227001
 O         1.963605        -1.269474        -0.404433
 H        -0.165322         1.335487        -0.392075
 H        -0.438812        -0.374113        -0.962556
 H        -0.592512        -0.130666         0.841098
 H         1.568441         0.674054         2.475378
 H         1.790613        -1.103211         2.054043
 H         4.222528        -0.653039         1.861694
 H         2.753826         2.724343         0.602405
 H         4.166330         2.411017        -0.372907
 H         2.300016         1.065703        -1.687462
 H         3.998798        -1.259878        -0.633448
