19
Iteration:  4644
 C        -0.068903         0.218083         0.004297
 C         1.416007         0.017357         0.168228
 C         1.952103         0.167993         1.640785
 C         3.436740         0.018086         1.276421
 O         4.152396         1.194886         1.046692
 C         3.277760         1.886168        -0.034259
 C         2.689107         0.690253        -0.628183
 C         3.206741        -0.620852        -0.056236
 O         1.956872        -1.302271        -0.213725
 H        -0.593247        -0.597203         0.624570
 H        -0.345548         1.115231         0.524045
 H        -0.465516         0.234026        -1.077704
 H         1.544037         1.131608         2.098728
 H         1.569622        -0.689002         2.206224
 H         3.999682        -0.580374         1.994998
 H         2.533647         2.652281         0.316658
 H         4.088257         2.392537        -0.553387
 H         2.648199         0.761898        -1.758003
 H         4.068463        -1.168211        -0.551759
