19
Iteration:  4028charge 0 multiplicity 1
 C         0.045332         0.475410        -0.087221
 C         1.398625         0.013932         0.255108
 C         2.076632        -0.111965         1.651673
 C         3.571083        -0.146506         1.234043
 O         3.989978         1.196393         1.215125
 C         3.198111         1.903484         0.164279
 C         2.413620         0.743231        -0.489191
 C         3.209638        -0.514030        -0.316432
 O         2.110102        -1.321476        -0.363650
 H        -0.100261         1.444103        -0.505942
 H        -0.202591        -0.067978        -1.073295
 H        -0.768222         0.231132         0.596884
 H         1.696862         0.718861         2.220404
 H         1.703661        -0.999284         2.267157
 H         4.213659        -0.739712         1.821548
 H         2.560798         2.671868         0.654548
 H         3.995936         2.269935        -0.454595
 H         1.988868         0.959204        -1.546362
 H         4.063203        -0.793162        -0.940813
