19
Iteration:  3982
 C        -0.071901         0.193309         0.025216
 C         1.475150         0.157739         0.131681
 C         1.927871        -0.007306         1.589851
 C         3.488158        -0.123230         1.270933
 O         4.112289         1.200957         1.176361
 C         3.277659         1.875193         0.225013
 C         2.595485         0.809007        -0.649914
 C         3.255227        -0.567385        -0.259269
 O         1.986020        -1.249100        -0.352245
 H        -0.654118         0.954783         0.539998
 H        -0.537224         0.246164        -0.905212
 H        -0.336826        -0.789293         0.501241
 H         1.825104         0.922030         2.272773
 H         1.380650        -0.836385         2.081358
 H         4.082288        -0.729913         1.935238
 H         2.572584         2.479760         0.829237
 H         3.911371         2.519031        -0.383917
 H         2.511404         1.079060        -1.668241
 H         4.012396        -1.059026        -0.790281
