19
Iteration:  4986charge 0 multiplicity 1
 C         0.016571         0.359331        -0.010223
 C         1.544658        -0.030452         0.292597
 C         2.003612         0.127661         1.638215
 C         3.451484         0.038710         1.306266
 O         3.956349         1.324818         1.096427
 C         3.329067         1.837828        -0.132401
 C         2.580730         0.638648        -0.688776
 C         3.188083        -0.673888        -0.172307
 O         1.957203        -1.390172        -0.105732
 H        -0.527475        -0.529434        -0.548950
 H        -0.519761         0.684376         0.968667
 H         0.118153         1.217103        -0.655956
 H         1.673309         1.024225         2.129891
 H         1.693517        -0.786637         2.271282
 H         4.212045        -0.469204         1.956676
 H         2.661343         2.733702         0.001749
 H         4.091625         2.319559        -0.740442
 H         2.223549         0.516401        -1.707972
 H         4.089338        -1.180132        -0.713627
