19
Iteration:  2208charge 0 multiplicity 1
 C        -0.124171         0.179859        -0.166390
 C         1.378560         0.041855         0.204936
 C         2.023378         0.020021         1.667916
 C         3.468113        -0.129896         1.334433
 O         4.090656         1.140047         1.053422
 C         3.321333         1.929149         0.230242
 C         2.584114         0.828227        -0.547230
 C         3.261568        -0.517383        -0.211402
 O         2.007178        -1.217289        -0.316269
 H        -0.411372         1.197935        -0.409315
 H        -0.376205        -0.546027        -0.937427
 H        -0.655009         0.049356         0.701606
 H         1.944219         0.892835         2.214171
 H         1.521227        -0.849609         2.144317
 H         4.076761        -0.771722         1.932621
 H         2.547088         2.630534         0.722842
 H         4.112111         2.446285        -0.341689
 H         2.367481         1.054248        -1.671747
 H         4.062982        -1.028552        -0.695675
