19
Iteration:  2764
 C        -0.056749         0.402758        -0.067585
 C         1.463142         0.048462         0.242569
 C         2.077908        -0.094764         1.590636
 C         3.553273        -0.137163         1.338225
 O         3.922882         1.246009         1.163733
 C         3.188305         1.855402         0.073055
 C         2.561563         0.741879        -0.593524
 C         3.286963        -0.566975        -0.231348
 O         2.046377        -1.264131        -0.271721
 H        -0.176336         1.531955        -0.172251
 H        -0.309457         0.110732        -1.024650
 H        -0.687175         0.035106         0.701476
 H         1.853598         0.775229         2.147741
 H         1.729820        -1.123191         2.027703
 H         4.116562        -0.704488         2.040703
 H         2.430269         2.546852         0.522517
 H         3.919472         2.406275        -0.573235
 H         2.418236         0.839822        -1.710843
 H         4.010652        -1.063235        -0.845336
