19
Iteration:   408charge 0 multiplicity 1
 C        -0.096561         0.220772        -0.035514
 C         1.435147         0.075877         0.163189
 C         2.049798        -0.417416         1.483619
 C         3.550749        -0.302762         1.064710
 O         4.013795         1.028257         1.395197
 C         3.228145         1.985662         0.585928
 C         2.535197         1.034117        -0.284228
 C         3.283012        -0.334865        -0.428886
 O         2.007571        -1.032518        -0.714754
 H        -0.624854         0.345906         0.960286
 H        -0.266629         1.109226        -0.665720
 H        -0.446858        -0.695304        -0.580341
 H         1.923681         0.209280         2.367710
 H         1.723270        -1.492942         1.687182
 H         4.333068        -0.828164         1.569569
 H         2.534541         2.579677         1.148742
 H         3.912097         2.759001         0.057548
 H         2.388624         1.432395        -1.269495
 H         4.061130        -0.424474        -1.148330
