19
Iteration:  1594charge 0 multiplicity 1
 C         0.032411         0.393792         0.060395
 C         1.458568         0.024057         0.176551
 C         1.960794        -0.128789         1.651005
 C         3.445128        -0.205332         1.302645
 O         3.824472         1.265676         1.226995
 C         3.340671         1.938101        -0.045425
 C         2.617823         0.771713        -0.650012
 C         3.366364        -0.513056        -0.206633
 O         1.997330        -1.289365        -0.334208
 H        -0.265535         0.900555         0.950046
 H        -0.154485         1.064513        -0.753171
 H        -0.691967        -0.545292         0.098438
 H         1.775382         0.798276         2.310186
 H         1.650225        -1.042267         2.001387
 H         4.042603        -0.777003         2.016150
 H         2.653666         2.744832         0.170831
 H         4.302307         2.209438        -0.519917
 H         2.377413         0.579209        -1.626682
 H         4.200775        -0.856892        -0.789047
