19
Iteration:  4603charge 0 multiplicity 1
 C        -0.073084        -0.007534        -0.015268
 C         1.348154         0.042698         0.221413
 C         1.946089         0.287001         1.626176
 C         3.395943        -0.057741         1.239914
 O         4.130529         1.197666         1.163172
 C         3.559019         1.887851         0.006588
 C         2.522164         0.790256        -0.607227
 C         3.167944        -0.558757        -0.281346
 O         1.942642        -1.263619        -0.131720
 H        -0.688248        -0.183140         0.798484
 H        -0.392938         0.884560        -0.521878
 H        -0.157207        -0.805835        -0.761962
 H         1.885512         1.281360         2.127722
 H         1.682747        -0.430605         2.430146
 H         3.957303        -0.801788         1.678681
 H         3.114710         2.818250         0.397290
 H         4.236995         2.039776        -0.833896
 H         2.485107         0.812819        -1.722269
 H         4.012871        -1.099930        -0.764120
