19
Iteration:   657
 C        -0.086824         0.248477        -0.102218
 C         1.455903         0.001185         0.144203
 C         2.041857        -0.232896         1.615504
 C         3.584592        -0.203860         1.196499
 O         4.102358         1.073355         1.276416
 C         3.208852         1.923793         0.519430
 C         2.493276         0.940658        -0.546177
 C         3.234915        -0.356149        -0.363975
 O         2.001324        -1.109729        -0.546295
 H        -0.618570        -0.409318         0.636820
 H        -0.332936         1.329197         0.028874
 H        -0.167906         0.018703        -1.243360
 H         1.771014         0.450703         2.351493
 H         1.675812        -1.195888         1.924345
 H         4.173383        -1.007016         1.773571
 H         2.381692         2.447363         1.148431
 H         3.784900         2.773596         0.195194
 H         2.146527         1.215759        -1.558193
 H         4.048080        -0.831639        -0.899139
