19
Iteration:  4773
 C        -0.087928        -0.039818        -0.053408
 C         1.340575         0.084917         0.175830
 C         1.983936         0.358053         1.636596
 C         3.416590         0.026013         1.355320
 O         4.242447         1.137124         1.029550
 C         3.439196         1.882873         0.001368
 C         2.550391         0.710455        -0.665425
 C         3.144481        -0.589969        -0.166583
 O         1.910019        -1.265162        -0.100149
 H        -0.352808        -0.791034        -0.869870
 H        -0.569206        -0.266249         0.861697
 H        -0.549668         0.978721        -0.316574
 H         1.782848         1.360913         2.097934
 H         1.664379        -0.342365         2.364242
 H         4.006634        -0.717389         2.057230
 H         3.081989         2.807216         0.509789
 H         4.173842         2.229470        -0.837465
 H         2.612747         0.793784        -1.810198
 H         3.968631        -1.133015        -0.722245
