19
Iteration:  1992
 C        -0.138197         0.000452        -0.070694
 C         1.347035         0.031895         0.221636
 C         1.977607         0.069191         1.611513
 C         3.476767        -0.125249         1.323468
 O         4.165956         1.162919         1.276138
 C         3.407243         1.909068         0.138783
 C         2.577927         0.875095        -0.644077
 C         3.204291        -0.490007        -0.245727
 O         1.971915        -1.184768        -0.397923
 H        -0.564430         1.040624         0.275552
 H        -0.352252        -0.049318        -1.136843
 H        -0.684051        -0.716856         0.450859
 H         2.043471         1.007383         2.154261
 H         1.612730        -0.752388         2.387492
 H         3.899883        -0.864468         1.918315
 H         2.875709         2.766791         0.543213
 H         4.183416         2.476956        -0.497453
 H         2.284030         1.139732        -1.706655
 H         3.972869        -0.882660        -0.851839
