19
Iteration:  4887
 C        -0.057982         0.227445        -0.078339
 C         1.375459         0.023110         0.234232
 C         1.997259         0.194472         1.712697
 C         3.493187        -0.013122         1.352647
 O         4.056491         1.329316         1.049810
 C         3.414790         1.843486        -0.215778
 C         2.590788         0.573688        -0.647875
 C         3.234088        -0.627896        -0.114345
 O         1.927791        -1.312434        -0.076618
 H        -0.250377         0.616415        -1.108310
 H        -0.651395        -0.729757         0.279167
 H        -0.279879         1.041038         0.630943
 H         1.702939         1.101397         2.222158
 H         1.526586        -0.640832         2.336715
 H         4.061166        -0.630525         1.996524
 H         2.788451         2.758104         0.001674
 H         4.192303         2.110899        -0.948520
 H         2.243433         0.752597        -1.670085
 H         4.053503        -1.241305        -0.618715
