19
Iteration:   495charge 0 multiplicity 1
 C        -0.036026         0.186942        -0.045851
 C         1.420142         0.068954         0.159244
 C         2.055929        -0.346723         1.547160
 C         3.537976        -0.326633         1.086942
 O         4.069608         1.068439         1.307918
 C         3.191616         1.973894         0.563287
 C         2.494146         1.021462        -0.399018
 C         3.307293        -0.334475        -0.388780
 O         1.989186        -1.033227        -0.596036
 H        -0.212635        -0.414719        -0.974199
 H        -0.801297         0.006754         0.700638
 H        -0.234036         1.212340        -0.402990
 H         1.690898         0.306867         2.352301
 H         1.589764        -1.440437         1.732546
 H         4.204441        -1.107468         1.492102
 H         2.527418         2.498900         1.278653
 H         3.913339         2.672078         0.052004
 H         2.243501         1.401402        -1.357629
 H         4.194312        -0.553633        -0.937459
