19
Iteration:  4435charge 0 multiplicity 1
 C        -0.063040         0.065385         0.014343
 C         1.352389         0.053477         0.166838
 C         1.948526         0.252846         1.597558
 C         3.416731        -0.068458         1.261474
 O         4.150616         1.114553         1.172229
 C         3.390573         1.908795         0.134924
 C         2.540267         0.774809        -0.666553
 C         3.221771        -0.492564        -0.295369
 O         2.002317        -1.308242        -0.194995
 H        -0.373401         0.804949        -0.767169
 H        -0.256862        -0.898637        -0.363363
 H        -0.582219         0.111272         0.920836
 H         1.841044         1.389446         1.763051
 H         1.648236        -0.206496         2.592560
 H         3.952530        -0.810000         1.940153
 H         2.900475         2.874643         0.437607
 H         4.169408         2.174344        -0.579351
 H         2.348507         0.831162        -1.695961
 H         3.926245        -1.044554        -0.833211
