19
Iteration:  1959charge 0 multiplicity 1
 C        -0.007276         0.292458        -0.075667
 C         1.450441         0.072320         0.230890
 C         2.005299        -0.103917         1.612035
 C         3.455375        -0.135320         1.274652
 O         4.063699         1.176523         1.125538
 C         3.183198         1.971695         0.177889
 C         2.557507         0.808029        -0.608870
 C         3.255964        -0.548960        -0.231917
 O         2.036991        -1.264352        -0.294955
 H         0.065255         1.448137        -0.244063
 H        -0.216859        -0.171992        -1.051223
 H        -0.702573         0.016525         0.632622
 H         1.807783         0.665785         2.369209
 H         1.596198        -1.127167         2.089244
 H         3.993329        -0.695154         1.974455
 H         2.454931         2.448332         0.810036
 H         4.000528         2.557227        -0.364864
 H         2.244950         1.057025        -1.656549
 H         4.048025        -1.008706        -0.791514
