19
Iteration:  1057
 C        -0.083289         0.174893        -0.131356
 C         1.380917         0.021609         0.198416
 C         1.919127         0.035976         1.651451
 C         3.453853        -0.130823         1.223604
 O         4.131682         1.172440         1.264634
 C         3.325518         1.804367         0.199572
 C         2.507902         0.841447        -0.536817
 C         3.313733        -0.492898        -0.330068
 O         2.032482        -1.186825        -0.337742
 H        -0.534671         1.025232        -0.653083
 H        -0.466270        -0.603968        -0.732613
 H        -0.727531         0.185126         0.878443
 H         1.784825         0.995884         2.217722
 H         1.661711        -0.801321         2.230609
 H         4.104571        -0.732951         1.915952
 H         2.823135         2.709505         0.517451
 H         4.054306         2.213537        -0.478662
 H         2.422314         1.158703        -1.573155
 H         4.147642        -0.913237        -0.842264
