19
Iteration:    90
 C        -0.059599         0.230042         0.054899
 C         1.454886         0.077510         0.111064
 C         2.104178        -0.633161         1.329118
 C         3.595971        -0.365871         0.992429
 O         4.031269         0.887080         1.512408
 C         3.051517         1.917274         0.900686
 C         2.403572         1.164374        -0.245837
 C         3.311833        -0.164751        -0.526051
 O         2.088838        -0.829668        -0.931003
 H        -0.399327        -0.195962        -0.797696
 H        -0.441862        -0.186170         0.999437
 H        -0.108977         1.368050        -0.051092
 H         2.040976        -0.264252         2.266898
 H         1.721298        -1.690362         1.271957
 H         4.286443        -1.154013         1.407058
 H         2.357249         2.319370         1.696425
 H         3.638777         2.793689         0.563374
 H         2.249233         1.705695        -1.128924
 H         4.094144        -0.251805        -1.332436
