19
Iteration:   297
 C         0.017779         0.320163         0.107668
 C         1.432619        -0.044821         0.151011
 C         2.084531        -0.593792         1.445905
 C         3.535692        -0.303224         1.047883
 O         3.887799         1.003128         1.519015
 C         3.190402         1.951248         0.681069
 C         2.499774         1.065105        -0.423618
 C         3.263915        -0.166959        -0.545125
 O         2.101760        -0.985508        -0.784249
 H        -0.368590         0.384068        -0.878625
 H        -0.695379        -0.280848         0.703247
 H        -0.131614         1.421863         0.477135
 H         1.844484        -0.110607         2.401191
 H         1.756844        -1.699119         1.553663
 H         4.309156        -1.045815         1.289589
 H         2.543994         2.631685         1.142201
 H         3.926477         2.621002         0.092983
 H         2.212900         1.411890        -1.321790
 H         4.177271        -0.285684        -1.193490
