19
Iteration:  3063charge 0 multiplicity 1
 C         0.013291         0.358610        -0.151501
 C         1.405047         0.018364         0.245494
 C         2.039433        -0.139869         1.753962
 C         3.489990        -0.049919         1.291439
 O         4.074945         1.217302         1.166497
 C         3.187912         1.927830         0.131974
 C         2.556828         0.766924        -0.649709
 C         3.302782        -0.514536        -0.233674
 O         1.945931        -1.297994        -0.335106
 H        -0.006259         1.314004        -0.663111
 H        -0.184470        -0.569265        -0.888235
 H        -0.649433         0.348538         0.757552
 H         1.670785         0.643799         2.507985
 H         1.642535        -1.084005         2.055921
 H         4.121921        -0.573675         1.978767
 H         2.572003         2.587686         0.758924
 H         3.975405         2.379825        -0.508200
 H         2.127957         0.904785        -1.605563
 H         4.158700        -1.007224        -0.746442
