19
Iteration:   560charge 0 multiplicity 1
 C        -0.129469         0.122443        -0.017138
 C         1.448112         0.105166         0.213371
 C         1.950677        -0.231228         1.601059
 C         3.472570        -0.263990         1.180265
 O         4.051108         1.053931         1.331131
 C         3.347749         1.931403         0.524828
 C         2.567862         0.986685        -0.512852
 C         3.305741        -0.323935        -0.425916
 O         2.017102        -1.055252        -0.657887
 H        -0.509416         1.038284        -0.516890
 H        -0.350278        -0.740569        -0.651659
 H        -0.552998        -0.147599         0.933206
 H         1.670129         0.432754         2.408398
 H         1.558489        -1.333728         1.740541
 H         4.274908        -0.971866         1.503854
 H         2.572913         2.459192         1.127113
 H         3.978821         2.591140        -0.069857
 H         2.264608         1.492193        -1.400784
 H         4.152413        -0.648326        -1.008817
