19
Iteration:  3877
 C         0.032302         0.425173         0.032979
 C         1.437807        -0.065945         0.176424
 C         1.961484         0.019160         1.549071
 C         3.491615        -0.071744         1.243900
 O         4.051955         1.223004         1.218643
 C         3.169593         1.802266         0.200447
 C         2.536995         0.729630        -0.645559
 C         3.315223        -0.532089        -0.271559
 O         2.052716        -1.311155        -0.329818
 H        -0.225675         1.291262         0.599224
 H        -0.297591         0.524647        -1.067840
 H        -0.779105        -0.207720         0.325094
 H         1.657890         0.953673         2.098242
 H         1.709780        -0.810915         2.273291
 H         4.034013        -0.727160         1.814524
 H         2.372767         2.329848         0.752475
 H         3.820378         2.546729        -0.277336
 H         2.341075         0.902587        -1.735831
 H         4.064432        -1.013759        -0.827082
