19
Iteration:   328charge 0 multiplicity 1
 C        -0.058923         0.181522         0.036855
 C         1.426217         0.064527         0.201174
 C         2.017059        -0.465368         1.491845
 C         3.505406        -0.331588         1.066902
 O         4.044697         1.021192         1.424604
 C         3.221855         1.934226         0.717559
 C         2.539822         1.050924        -0.382910
 C         3.257078        -0.245660        -0.525333
 O         2.056616        -0.915425        -0.808025
 H        -0.374067         0.845203        -0.745050
 H        -0.375256        -0.832920        -0.335654
 H        -0.685543         0.303715         1.032458
 H         1.790036         0.187815         2.416468
 H         1.607950        -1.561102         1.700923
 H         4.353201        -0.951351         1.462091
 H         2.523656         2.547718         1.315844
 H         3.852780         2.535707         0.047455
 H         2.265654         1.445036        -1.328682
 H         4.227861        -0.404229        -1.107449
