19
Iteration:  4587
 C        -0.124991         0.064016        -0.154767
 C         1.369513         0.036852         0.317589
 C         1.997217         0.173583         1.682367
 C         3.523505        -0.080820         1.229109
 O         4.121684         1.215643         1.143422
 C         3.487510         1.840970        -0.014493
 C         2.488917         0.782304        -0.647310
 C         3.220238        -0.523132        -0.219875
 O         1.939709        -1.258477        -0.106872
 H        -0.837896         0.091194         0.814600
 H        -0.289738         0.988912        -0.775382
 H        -0.449136        -0.861215        -0.702483
 H         1.960791         1.266853         1.914572
 H         1.403890        -0.431392         2.371184
 H         4.088563        -0.750943         2.036888
 H         2.948759         2.811954         0.164783
 H         4.397714         2.038597        -0.632554
 H         1.952264         0.998573        -1.581828
 H         4.008473        -0.931594        -0.890752
