19
Iteration:  4226charge 0 multiplicity 1
 C        -0.016029         0.235935        -0.000098
 C         1.448466         0.036360         0.158777
 C         1.992088        -0.036779         1.672949
 C         3.437806        -0.095212         1.305378
 O         4.079518         1.289204         1.157251
 C         3.320658         1.896474         0.067820
 C         2.545402         0.781471        -0.666449
 C         3.296795        -0.632475        -0.186229
 O         1.926900        -1.197329        -0.302773
 H        -0.504668        -0.401932         0.737373
 H        -0.400144         1.243921         0.319857
 H        -0.478766        -0.094687        -0.875726
 H         1.704238         0.732927         2.392249
 H         1.709276        -1.151287         1.982519
 H         4.083796        -0.660802         2.009368
 H         2.734856         2.755028         0.404949
 H         3.878600         2.392017        -0.715082
 H         2.489219         0.710003        -1.811951
 H         4.085879        -1.155602        -0.735380
