19
Iteration:  3069
 C         0.022831         0.376058        -0.133840
 C         1.451975         0.002984         0.228265
 C         1.985188        -0.078676         1.785679
 C         3.468371        -0.060236         1.235042
 O         4.070266         1.252630         1.175749
 C         3.204311         1.943669         0.184536
 C         2.555371         0.718440        -0.617755
 C         3.274056        -0.533689        -0.253191
 O         1.962189        -1.340575        -0.337814
 H        -0.258950         1.306634        -0.686776
 H        -0.129423        -0.350626        -0.853979
 H        -0.676743         0.310335         0.701820
 H         1.747149         0.605899         2.558114
 H         1.809411        -1.203398         1.906162
 H         4.224902        -0.687899         1.817834
 H         2.657993         2.797976         0.653220
 H         3.887120         2.439198        -0.501979
 H         2.306919         0.887049        -1.724235
 H         4.072339        -1.059217        -0.812051
