19
Iteration:   592charge 0 multiplicity 1
 C        -0.041769         0.323077         0.098328
 C         1.449096         0.017436         0.168664
 C         1.978749        -0.362680         1.498379
 C         3.510449        -0.259846         1.170678
 O         3.879504         1.163862         1.427484
 C         3.318950         1.961348         0.407657
 C         2.557188         0.943737        -0.478924
 C         3.346375        -0.387928        -0.432499
 O         2.065700        -1.145097        -0.671089
 H        -0.376278         1.204400         0.687752
 H        -0.483233         0.304093        -0.899236
 H        -0.626395        -0.488232         0.637748
 H         1.683022         0.291030         2.286361
 H         1.510268        -1.338628         1.756232
 H         4.362984        -0.833905         1.616718
 H         2.753617         2.797994         0.918271
 H         4.056927         2.512532        -0.155490
 H         2.138644         1.197852        -1.436835
 H         4.136091        -0.705368        -1.101339
