19
Iteration:   817charge 0 multiplicity 1
 C        -0.031815         0.277775        -0.104508
 C         1.452205         0.011374         0.157193
 C         2.025869        -0.144109         1.600608
 C         3.506026        -0.201578         1.209217
 O         4.078663         1.144900         1.240756
 C         3.190175         1.946280         0.425290
 C         2.535737         0.896808        -0.519922
 C         3.255082        -0.469489        -0.324267
 O         2.010318        -1.228228        -0.459535
 H        -0.296384         1.273805         0.120345
 H        -0.205996         0.236506        -1.144041
 H        -0.772420        -0.376641         0.454300
 H         1.768234         0.756412         2.349844
 H         1.733910        -1.079643         2.037446
 H         4.152861        -0.966033         1.754837
 H         2.536124         2.631619         1.022674
 H         3.779184         2.617679        -0.260583
 H         2.313261         1.199048        -1.518364
 H         4.078141        -0.706558        -1.035338
