19
Iteration:  3334
 C        -0.078728         0.241326        -0.047869
 C         1.354467        -0.034472         0.153583
 C         1.964588         0.190826         1.587060
 C         3.424823        -0.071991         1.221166
 O         4.120653         1.217194         1.183052
 C         3.333143         1.806588         0.158950
 C         2.606044         0.731639        -0.673528
 C         3.278890        -0.559088        -0.236208
 O         2.021318        -1.287776        -0.200630
 H        -0.494793        -0.721830        -0.035480
 H        -0.560922         0.676661         0.863944
 H        -0.240333         0.841792        -0.941491
 H         1.688154         1.230060         2.072500
 H         1.570572        -0.488882         2.383472
 H         3.883745        -0.787111         1.911828
 H         2.493686         2.438564         0.523626
 H         3.964768         2.399858        -0.460145
 H         2.454736         1.070389        -1.683238
 H         4.082597        -1.129842        -0.705654
