19
Iteration:  2431charge 0 multiplicity 1
 C        -0.060721         0.455900        -0.007836
 C         1.447731         0.082157         0.233737
 C         1.992595        -0.170419         1.621191
 C         3.528637        -0.118510         1.280125
 O         3.925751         1.275139         1.237608
 C         3.263255         1.862308         0.022758
 C         2.595972         0.710460        -0.697788
 C         3.339221        -0.539528        -0.163615
 O         2.014075        -1.304600        -0.301780
 H        -0.262951         1.445795         0.151470
 H        -0.509374         0.078232        -0.948565
 H        -0.696706        -0.104212         0.761981
 H         1.676159         0.658970         2.399277
 H         1.733884        -1.131849         1.865977
 H         4.262152        -0.710961         1.856391
 H         2.594043         2.684736         0.212694
 H         4.082463         2.279930        -0.497698
 H         2.355769         0.743708        -1.738559
 H         4.152694        -0.799782        -0.888502
