19
Iteration:   900charge 0 multiplicity 1
 C        -0.064854         0.177275        -0.026338
 C         1.446143        -0.013833         0.113976
 C         1.934506        -0.055448         1.531163
 C         3.464010        -0.176700         1.240449
 O         4.009139         1.130543         1.292237
 C         3.362048         1.944055         0.273736
 C         2.550287         0.904964        -0.566012
 C         3.282858        -0.464338        -0.230918
 O         2.015387        -1.188770        -0.457395
 H        -0.525251        -0.790607         0.405648
 H        -0.337596         0.996922         0.762885
 H        -0.386600         0.443908        -1.012970
 H         1.879854         0.797374         2.107807
 H         1.596660        -0.953633         2.139598
 H         4.120894        -0.782740         1.765064
 H         2.743031         2.635276         0.821177
 H         4.115890         2.438096        -0.298631
 H         2.353423         1.277487        -1.582446
 H         4.052601        -0.861348        -0.896522
