19
Iteration:  2226charge 0 multiplicity 1
 C        -0.004190         0.310276        -0.054774
 C         1.476583         0.043181         0.139192
 C         1.912262        -0.025060         1.635593
 C         3.506616        -0.102099         1.186630
 O         4.118158         1.204975         1.212676
 C         3.219909         1.897144         0.169300
 C         2.555678         0.777693        -0.617777
 C         3.266819        -0.575394        -0.236214
 O         1.994963        -1.272893        -0.247510
 H        -0.076328         1.343104        -0.296192
 H        -0.319825        -0.218208        -1.052660
 H        -0.733683        -0.051350         0.779674
 H         1.497445         0.853998         2.322132
 H         1.578246        -0.931404         2.084815
 H         4.081008        -0.808193         1.875626
 H         2.513989         2.452976         0.734040
 H         3.700550         2.663494        -0.500187
 H         2.327419         0.913053        -1.611472
 H         4.130177        -0.979303        -0.833130
