19
Iteration:  2816
 C        -0.154793         0.115023        -0.111927
 C         1.432396         0.109804         0.172699
 C         1.868539         0.084003         1.643558
 C         3.514651        -0.122871         1.238618
 O         4.176422         1.170385         1.105454
 C         3.328879         1.872118         0.188614
 C         2.521557         0.789610        -0.562036
 C         3.302125        -0.512105        -0.172110
 O         2.011065        -1.227529        -0.292439
 H        -0.632861         1.182686         0.103985
 H        -0.485519        -0.275960        -1.129116
 H        -0.509486        -0.511541         0.694298
 H         1.746457         0.945316         2.323394
 H         1.581684        -0.783465         2.224739
 H         4.000427        -0.825364         1.899581
 H         2.835562         2.702557         0.685972
 H         3.955408         2.374761        -0.519648
 H         2.355955         1.085010        -1.702120
 H         4.104706        -0.944136        -0.754175
