19
Iteration:   524
 C        -0.092227         0.096371        -0.176020
 C         1.376518         0.029312         0.142650
 C         2.049443        -0.190558         1.674409
 C         3.536081        -0.235766         1.123314
 O         4.162779         1.005251         1.264899
 C         3.307762         1.888419         0.646469
 C         2.421560         1.029723        -0.408647
 C         3.250133        -0.270350        -0.451552
 O         1.990192        -1.085206        -0.598951
 H        -0.193800         0.245311        -1.204513
 H        -0.595224        -0.837259         0.022797
 H        -0.575326         1.048134         0.242678
 H         1.667333         0.621034         2.248996
 H         1.743157        -1.037320         2.118280
 H         4.089263        -1.092888         1.472137
 H         2.699243         2.448644         1.415073
 H         3.901740         2.639360         0.267702
 H         2.107392         1.544095        -1.281745
 H         4.228486        -0.404990        -0.965683
