19
Iteration:  1548
 C        -0.035828         0.218534        -0.089747
 C         1.386285        -0.006672         0.168334
 C         1.980479        -0.010785         1.675518
 C         3.533753        -0.120177         1.264272
 O         4.060027         1.202118         1.207367
 C         3.358079         1.924626         0.148263
 C         2.533071         0.795761        -0.585902
 C         3.231307        -0.502475        -0.207717
 O         1.958757        -1.257375        -0.341833
 H        -0.532137         1.185128         0.147209
 H        -0.187755         0.100170        -1.116647
 H        -0.699555        -0.454253         0.492203
 H         1.953414         1.055134         1.973141
 H         1.427384        -0.719165         2.286767
 H         4.261800        -0.771032         1.801064
 H         2.805363         2.632108         0.757823
 H         4.157190         2.349990        -0.586306
 H         2.253047         0.942469        -1.696968
 H         4.120546        -0.962467        -0.774349
