19
Iteration:  2617charge 0 multiplicity 1
 C         0.014664         0.314464        -0.070115
 C         1.488820         0.051509         0.211464
 C         2.023357        -0.085480         1.680190
 C         3.517487        -0.106734         1.344674
 O         3.984837         1.290821         1.221059
 C         3.288026         1.870276         0.059746
 C         2.515565         0.763719        -0.660971
 C         3.203330        -0.574143        -0.335440
 O         1.986642        -1.298385        -0.244282
 H         0.083260         1.339873         0.025379
 H        -0.262229        -0.015146        -1.121111
 H        -0.673369        -0.108076         0.701741
 H         1.674688         0.778636         2.345838
 H         1.619424        -0.986852         1.956104
 H         4.219578        -0.631347         2.030089
 H         2.584481         2.669377         0.587209
 H         3.897876         2.360832        -0.663128
 H         2.346774         0.865134        -1.697402
 H         4.055849        -0.894466        -0.936938
