19
Iteration:  2808
 C        -0.102502         0.168114        -0.044555
 C         1.393563         0.019083         0.118850
 C         1.932764         0.057317         1.619264
 C         3.438145        -0.071080         1.287868
 O         4.155584         1.156127         1.100005
 C         3.318708         1.886578         0.206373
 C         2.550889         0.804248        -0.572458
 C         3.283298        -0.543621        -0.237260
 O         2.023160        -1.218223        -0.268478
 H        -0.502857         1.216203        -0.119376
 H        -0.328504        -0.235397        -0.978700
 H        -0.593835        -0.451802         0.703093
 H         1.885508         1.003033         2.088053
 H         1.444369        -0.845198         2.124676
 H         4.050098        -0.608440         1.974994
 H         2.696258         2.547259         0.755144
 H         4.013714         2.402629        -0.468501
 H         2.246583         1.091958        -1.599536
 H         4.161795        -0.913685        -0.716409
