19
Iteration:  2290charge 0 multiplicity 1
 C        -0.015058         0.270138        -0.018741
 C         1.451624         0.066733         0.152161
 C         2.010767        -0.085056         1.653868
 C         3.468119         0.013683         1.291975
 O         3.974766         1.235215         1.202727
 C         3.408816         1.866793         0.049234
 C         2.550262         0.799282        -0.583457
 C         3.267425        -0.604928        -0.255227
 O         1.933329        -1.286218        -0.264306
 H        -0.448781         0.895543         0.779444
 H        -0.313809         0.804041        -0.977648
 H        -0.541578        -0.765433        -0.123971
 H         1.356393         0.589841         2.361746
 H         1.668599        -1.058571         1.827163
 H         4.231949        -0.579397         1.882006
 H         2.918304         2.820115         0.416586
 H         4.216352         2.290872        -0.558166
 H         2.320218         1.008176        -1.557731
 H         4.063975        -1.046320        -0.930919
