19
Iteration:   324
 C        -0.031558         0.189029         0.071281
 C         1.436189         0.078283         0.170373
 C         2.022249        -0.512931         1.482536
 C         3.515176        -0.319434         1.073046
 O         4.000198         1.018865         1.415758
 C         3.226276         1.941822         0.705110
 C         2.495604         1.076695        -0.350589
 C         3.312564        -0.280085        -0.511607
 O         2.053380        -0.922787        -0.810705
 H        -0.357151         0.853838        -0.793377
 H        -0.426917        -0.789553        -0.212960
 H        -0.596246         0.479831         0.884749
 H         1.895620         0.122740         2.381107
 H         1.604562        -1.433017         1.695990
 H         4.288905        -1.011558         1.446502
 H         2.519636         2.637712         1.306461
 H         3.849539         2.542338         0.071305
 H         2.172966         1.524041        -1.427597
 H         4.182932        -0.475818        -1.116628
