19
Iteration:  1803
 C        -0.092461         0.223188        -0.071787
 C         1.408243         0.035026         0.217707
 C         1.975767         0.005074         1.627238
 C         3.538384        -0.026846         1.293267
 O         4.124529         1.166794         1.141685
 C         3.239304         1.890961         0.186584
 C         2.590855         0.797103        -0.614342
 C         3.274493        -0.608866        -0.221053
 O         1.946801        -1.216680        -0.364248
 H        -0.531525         1.002266         0.485853
 H        -0.124392         0.456144        -1.172608
 H        -0.666467        -0.674946         0.157912
 H         1.622624         0.931528         2.232009
 H         1.713529        -0.952388         2.167214
 H         4.226221        -0.633900         1.964515
 H         2.589541         2.464266         0.894016
 H         3.985013         2.637801        -0.353408
 H         2.352684         0.996484        -1.598553
 H         4.184307        -1.154956        -0.625986
