19
Iteration:  1001charge 0 multiplicity 1
 C        -0.168801         0.117375        -0.042380
 C         1.404459         0.118821         0.169850
 C         1.953187         0.029963         1.535587
 C         3.494825        -0.176727         1.253817
 O         4.064908         1.126186         1.259955
 C         3.410718         1.914213         0.175117
 C         2.542166         0.868282        -0.509575
 C         3.242896        -0.505378        -0.242154
 O         2.045499        -1.201316        -0.416712
 H        -0.395938         0.631997        -0.977091
 H        -0.500200        -0.928339         0.135785
 H        -0.787851         0.569537         0.834114
 H         1.799693         0.941632         2.112653
 H         1.547030        -0.765874         2.091004
 H         4.083720        -0.843468         2.028960
 H         2.793987         2.700264         0.619018
 H         4.204213         2.395773        -0.398554
 H         2.502522         0.988840        -1.580252
 H         4.141083        -0.823978        -0.837492
