19
Iteration:   251charge 0 multiplicity 1
 C         0.020547         0.233386         0.029228
 C         1.448109         0.015226         0.118584
 C         2.006151        -0.576505         1.484953
 C         3.517202        -0.313415         1.024804
 O         4.015467         0.967919         1.432717
 C         3.156188         1.895914         0.740338
 C         2.507489         1.148494        -0.378615
 C         3.350205        -0.194446        -0.485480
 O         2.021200        -0.912252        -0.804670
 H        -0.561163        -0.727123        -0.016016
 H        -0.220324         0.707478         1.003443
 H        -0.438236         0.914918        -0.728990
 H         1.740745         0.042855         2.433844
 H         1.777549        -1.654321         1.708283
 H         4.337902        -0.967324         1.415306
 H         2.366448         2.189078         1.400614
 H         3.611152         2.843010         0.354565
 H         2.230563         1.662959        -1.246407
 H         4.207431        -0.339867        -1.186964
