19
Iteration:   959charge 0 multiplicity 1
 C         0.054104         0.413056        -0.108650
 C         1.403671         0.033996         0.192670
 C         2.027819        -0.187219         1.644130
 C         3.508787        -0.147399         1.230615
 O         4.028168         1.242154         1.222997
 C         3.139659         1.926439         0.260662
 C         2.591869         0.785782        -0.541346
 C         3.281772        -0.573687        -0.273538
 O         1.996902        -1.279227        -0.382543
 H        -0.090924        -0.048356        -1.100153
 H        -0.730934         0.103433         0.601793
 H        -0.192368         1.576323        -0.277764
 H         1.795078         0.520851         2.493879
 H         1.715672        -1.123934         1.904083
 H         4.261402        -0.688032         1.971067
 H         2.524881         2.665698         0.814403
 H         3.735617         2.630118        -0.397783
 H         2.295162         0.942237        -1.603590
 H         3.901219        -0.938772        -1.099498
