19
Iteration:  1392charge 0 multiplicity 1
 C        -0.049746         0.228602        -0.090730
 C         1.398574         0.059026         0.194585
 C         2.015094         0.021058         1.700211
 C         3.446245        -0.106535         1.236295
 O         4.100593         1.219202         1.171321
 C         3.285613         1.890702         0.136882
 C         2.568254         0.770014        -0.618967
 C         3.218194        -0.553798        -0.247852
 O         2.007942        -1.279605        -0.258014
 H        -0.432109         0.839900         0.722156
 H        -0.101615         0.910092        -1.019090
 H        -0.561274        -0.731508        -0.285585
 H         1.845862         0.820880         2.313382
 H         1.431239        -0.812717         2.135224
 H         4.135154        -0.791190         1.724280
 H         2.540113         2.536879         0.538548
 H         4.084173         2.471807        -0.435763
 H         2.373123         0.966977        -1.669184
 H         4.070191        -0.893602        -0.752442
