19
Iteration:   655
 C        -0.088022         0.269093        -0.093830
 C         1.455855         0.007711         0.139202
 C         2.056047        -0.256130         1.623554
 C         3.563601        -0.194958         1.193927
 O         4.094729         1.091527         1.286896
 C         3.200389         1.924129         0.514734
 C         2.507629         0.938284        -0.540622
 C         3.218875        -0.371353        -0.373395
 O         2.010377        -1.116215        -0.553342
 H        -0.589552        -0.297917         0.629645
 H        -0.329889         1.298885        -0.008288
 H        -0.153680        -0.054416        -1.220889
 H         1.780525         0.457023         2.398241
 H         1.757164        -1.197048         1.877384
 H         4.146467        -0.995634         1.730386
 H         2.429251         2.392280         1.185230
 H         3.798845         2.754534         0.156991
 H         2.170874         1.134108        -1.522933
 H         4.046205        -0.833009        -0.925849
