19
Iteration:  4153charge 0 multiplicity 1
 C        -0.043871         0.203700        -0.122017
 C         1.414527         0.040554         0.264309
 C         2.033537        -0.080335         1.775683
 C         3.456458        -0.156509         1.244408
 O         4.075229         1.216440         1.044180
 C         3.301867         1.973502         0.145984
 C         2.608596         0.817412        -0.587908
 C         3.272104        -0.572570        -0.201074
 O         1.919324        -1.179874        -0.307026
 H        -0.903042         0.519978         0.566342
 H        -0.143782         0.977250        -0.875761
 H        -0.357934        -0.765094        -0.635114
 H         1.853021         0.658005         2.566619
 H         1.722140        -1.016809         2.079605
 H         4.204080        -0.702749         1.802667
 H         2.621753         2.685201         0.680161
 H         3.982156         2.657286        -0.421169
 H         2.261958         0.885911        -1.537145
 H         4.035417        -1.127871        -0.648512
