19
Iteration:  3981
 C        -0.065124         0.186777         0.025388
 C         1.459457         0.154216         0.128664
 C         1.925350        -0.000970         1.597678
 C         3.487362        -0.132187         1.260694
 O         4.114906         1.205358         1.180611
 C         3.281398         1.871055         0.217571
 C         2.602044         0.812485        -0.642528
 C         3.257975        -0.562547        -0.264554
 O         1.984149        -1.250883        -0.354468
 H        -0.677045         0.937108         0.551007
 H        -0.545762         0.251188        -0.881905
 H        -0.334745        -0.810229         0.464930
 H         1.811655         0.968504         2.327824
 H         1.357780        -0.803745         2.107867
 H         4.072688        -0.763342         1.982053
 H         2.587544         2.495141         0.810543
 H         3.933624         2.521255        -0.397994
 H         2.492664         1.101215        -1.650791
 H         4.047694        -1.051184        -0.807213
