19
Iteration:  4972
 C        -0.041284         0.280345        -0.023384
 C         1.342254        -0.005083         0.160596
 C         1.963597         0.155773         1.691043
 C         3.506018        -0.024904         1.302467
 O         4.083032         1.303420         1.041011
 C         3.304870         1.840802        -0.103893
 C         2.584290         0.614138        -0.655600
 C         3.294023        -0.612518        -0.107405
 O         1.981553        -1.323746        -0.103581
 H        -0.577353        -0.526820        -0.468962
 H        -0.539873         0.424243         0.983992
 H        -0.295419         1.151753        -0.612304
 H         1.885811         1.194310         2.014575
 H         1.474655        -0.533358         2.399708
 H         4.055878        -0.554602         1.997336
 H         2.612520         2.571766         0.336585
 H         4.085494         2.165112        -0.858774
 H         2.462820         0.743078        -1.758977
 H         4.065496        -1.232982        -0.589253
