19
Iteration:   789charge 0 multiplicity 1
 C         0.042975         0.425741        -0.044624
 C         1.497177         0.038807         0.137820
 C         2.002358        -0.275039         1.655464
 C         3.513229        -0.190599         1.237710
 O         3.990550         1.187237         1.234128
 C         3.091072         1.919093         0.409890
 C         2.585569         0.840234        -0.595861
 C         3.288782        -0.514088        -0.323581
 O         2.064573        -1.191012        -0.502693
 H        -0.283253         1.475596        -0.400488
 H        -0.603327        -0.197380        -0.741893
 H        -0.505665         0.498596         0.929216
 H         1.777908         0.442757         2.380451
 H         1.749686        -1.297326         2.030368
 H         4.191477        -0.951797         1.666314
 H         2.278401         2.305178         1.060437
 H         3.612374         2.697260        -0.139788
 H         2.215048         0.990720        -1.679521
 H         4.144490        -0.771341        -0.929387
