19
Iteration:  3248charge 0 multiplicity 1
 C         0.013546         0.304973        -0.045357
 C         1.432080         0.013634         0.249339
 C         1.930951         0.129312         1.639278
 C         3.469443        -0.045065         1.305120
 O         3.978425         1.231909         1.219600
 C         3.318826         1.856701         0.000620
 C         2.568802         0.645882        -0.632870
 C         3.292905        -0.612395        -0.257304
 O         2.028360        -1.303628        -0.269225
 H        -0.657534        -0.535346        -0.084053
 H        -0.367459         1.035721         0.768561
 H        -0.201492         0.817777        -0.992350
 H         1.699134         1.059470         2.299822
 H         1.582191        -0.726119         2.149709
 H         4.151971        -0.579732         1.957487
 H         2.557581         2.643846         0.257352
 H         4.196586         2.240509        -0.560437
 H         2.265433         0.849339        -1.661592
 H         4.053779        -1.117295        -0.836481
