19
Iteration:  4177charge 0 multiplicity 1
 C         0.003004         0.371352        -0.015854
 C         1.439875        -0.000896         0.194311
 C         2.004039        -0.072827         1.617197
 C         3.519610        -0.116601         1.300268
 O         4.048841         1.281475         1.198965
 C         3.216698         1.848080         0.088501
 C         2.526476         0.762583        -0.603843
 C         3.265455        -0.542938        -0.252194
 O         2.018995        -1.325979        -0.298982
 H        -0.591255         0.675662         0.887050
 H        -0.066578         1.292375        -0.575277
 H        -0.653934        -0.390861        -0.570076
 H         1.847477         0.756203         2.338679
 H         1.540315        -0.994721         1.917500
 H         4.182632        -0.660068         1.926473
 H         2.596667         2.687779         0.465478
 H         3.915606         2.386428        -0.591418
 H         2.143475         0.937835        -1.575988
 H         4.009129        -0.906721        -0.953407
