19
Iteration:  2716charge 0 multiplicity 1
 C        -0.089848         0.203879        -0.008186
 C         1.413860         0.015655         0.225534
 C         1.996434         0.055979         1.643394
 C         3.509440        -0.062925         1.242644
 O         3.981756         1.216738         1.244912
 C         3.379525         1.881514         0.069593
 C         2.489246         0.734286        -0.596665
 C         3.317294        -0.519266        -0.205303
 O         1.987674        -1.256433        -0.364595
 H        -0.409420         1.135507         0.430019
 H        -0.057223         0.528235        -1.102287
 H        -0.711739        -0.651014         0.286134
 H         1.912431         0.964583         2.296828
 H         1.559555        -0.801835         2.026021
 H         4.217534        -0.678747         1.870536
 H         2.859018         2.719024         0.379417
 H         4.181500         2.128840        -0.573365
 H         2.367013         0.659372        -1.710515
 H         4.080818        -1.015754        -0.829540
