19
Iteration:  1995
 C        -0.131712         0.003619        -0.076513
 C         1.328739         0.010174         0.240263
 C         1.968140         0.097883         1.608628
 C         3.467282        -0.119373         1.299109
 O         4.146303         1.147319         1.280392
 C         3.439187         1.902305         0.135698
 C         2.582901         0.894012        -0.627579
 C         3.203390        -0.492427        -0.248279
 O         1.979395        -1.186428        -0.405360
 H        -0.562496         0.886005         0.326811
 H        -0.363807        -0.011988        -1.073407
 H        -0.687746        -0.812321         0.468099
 H         2.071455         1.059595         2.148930
 H         1.691963        -0.627897         2.286313
 H         3.944248        -0.864225         1.996239
 H         2.879761         2.768833         0.527837
 H         4.193907         2.477767        -0.488840
 H         2.232067         1.133561        -1.698715
 H         4.002668        -0.876340        -0.863259
