19
Iteration:  1186
 C        -0.106960         0.016921        -0.065541
 C         1.391965         0.103626         0.207099
 C         1.880476         0.029095         1.593378
 C         3.478576        -0.123220         1.304974
 O         4.201329         1.196702         1.188474
 C         3.491349         1.888383         0.121797
 C         2.571878         0.917191        -0.576199
 C         3.235575        -0.538563        -0.236508
 O         1.887678        -1.186858        -0.292590
 H        -0.890244         0.455413         0.472832
 H        -0.281237         0.134375        -1.166562
 H        -0.328857        -1.059052        -0.159819
 H         1.687302         1.015560         2.160518
 H         1.203619        -0.783827         2.213493
 H         4.213544        -0.588551         2.023975
 H         2.970626         2.753963         0.754220
 H         4.160354         2.304123        -0.669000
 H         2.342465         1.086398        -1.590361
 H         3.894802        -0.929592        -0.950855
