19
Iteration:  4530charge 0 multiplicity 1
 C         0.030089         0.454017         0.015655
 C         1.446727         0.027438         0.141786
 C         2.021248         0.120258         1.645921
 C         3.452608        -0.055362         1.255897
 O         3.995553         1.336579         1.087635
 C         3.150490         1.823103         0.068220
 C         2.600332         0.571159        -0.709731
 C         3.295875        -0.707499        -0.148324
 O         2.033922        -1.374940        -0.170881
 H        -0.224187         1.002207         0.963660
 H        -0.164232         1.214539        -0.871450
 H        -0.654134        -0.369062        -0.125294
 H         1.905651         0.947836         2.265231
 H         1.530716        -0.742387         2.119424
 H         4.047046        -0.587631         2.011217
 H         2.308404         2.472490         0.336670
 H         3.853480         2.412001        -0.580489
 H         2.513593         0.556994        -1.767006
 H         4.151433        -1.034255        -0.646579
