19
Iteration:  2126
 C         0.043661         0.302621        -0.009922
 C         1.433931        -0.002963         0.164412
 C         1.973675        -0.069087         1.622847
 C         3.455256        -0.082579         1.310493
 O         4.003910         1.273568         1.175581
 C         3.304095         1.853603         0.140559
 C         2.571006         0.806067        -0.581547
 C         3.310112        -0.583812        -0.213064
 O         1.938280        -1.252204        -0.395203
 H        -0.149831         1.450360         0.125879
 H        -0.286437        -0.031999        -0.964540
 H        -0.569467        -0.324930         0.768073
 H         1.646068         0.782068         2.374593
 H         1.716253        -1.063802         2.083619
 H         3.969183        -0.718276         2.076892
 H         2.538993         2.526658         0.517364
 H         3.976760         2.456258        -0.612586
 H         2.580792         1.061276        -1.630970
 H         4.106497        -1.102507        -0.826644
