19
Iteration:  2009
 C        -0.133878        -0.015502        -0.010912
 C         1.384862        -0.000253         0.211117
 C         1.928129         0.172991         1.638736
 C         3.393380        -0.107253         1.179487
 O         4.064086         1.126166         1.219950
 C         3.540285         1.888389         0.175714
 C         2.577615         0.884239        -0.515036
 C         3.242035        -0.457007        -0.302369
 O         1.990988        -1.193952        -0.374455
 H        -0.678972         0.665735         0.584262
 H        -0.346990         0.164113        -1.127404
 H        -0.402676        -1.120076         0.184290
 H         1.658538         1.204072         1.921543
 H         1.511256        -0.436705         2.379921
 H         4.017071        -0.859643         1.826857
 H         3.046727         2.818383         0.604173
 H         4.326721         2.160987        -0.463964
 H         2.364472         1.115992        -1.517062
 H         4.139113        -0.951785        -0.834854
