19
Iteration:  1152
 C        -0.077942         0.182322        -0.029035
 C         1.436641         0.054632         0.198381
 C         1.942098         0.033216         1.646087
 C         3.473872        -0.118333         1.298700
 O         4.038997         1.187692         1.238658
 C         3.392657         1.829358         0.073541
 C         2.520817         0.801753        -0.648553
 C         3.281278        -0.447533        -0.232586
 O         2.005316        -1.242892        -0.335366
 H        -0.721504         0.720084         0.654303
 H        -0.241691         0.754806        -0.971141
 H        -0.492007        -0.786824        -0.109554
 H         1.839022         0.980648         2.165483
 H         1.491262        -0.871219         2.257957
 H         3.946737        -0.884906         1.998490
 H         2.868844         2.696651         0.604055
 H         4.176027         2.229314        -0.630717
 H         2.412568         1.002971        -1.681377
 H         4.086022        -0.920521        -0.810638
