19
Iteration:  1581
 C        -0.008819         0.384974         0.058234
 C         1.501266         0.062644         0.181784
 C         1.952061        -0.197985         1.641448
 C         3.444895        -0.067725         1.310339
 O         3.882629         1.269079         1.218124
 C         3.381056         1.850505         0.027710
 C         2.601445         0.704762        -0.703901
 C         3.263739        -0.543295        -0.195600
 O         2.023018        -1.222330        -0.324440
 H        -0.382883         1.041664         0.866525
 H        -0.312845         0.742020        -0.857823
 H        -0.461068        -0.627775         0.030904
 H         1.577134         0.524675         2.427270
 H         1.429974        -1.113078         1.924285
 H         4.324400        -0.541293         1.788627
 H         2.773117         2.713786         0.382458
 H         4.128074         2.461081        -0.663012
 H         2.378720         0.919638        -1.795732
 H         4.131049        -1.131435        -0.634765
