19
Iteration:   633
 C        -0.027548         0.369687        -0.009990
 C         1.462499         0.028317         0.230926
 C         1.993385        -0.378111         1.558230
 C         3.602803        -0.261954         1.118529
 O         3.958129         1.157010         1.320683
 C         3.157416         1.969410         0.428620
 C         2.540009         0.913023        -0.437950
 C         3.342265        -0.415346        -0.387629
 O         2.010154        -1.161346        -0.581328
 H        -0.547480         0.453159         0.895589
 H         0.006454         1.323197        -0.481068
 H        -0.441650        -0.336659        -0.852067
 H         1.827886         0.269682         2.418052
 H         1.629837        -1.303496         1.729467
 H         4.265155        -0.869294         1.762624
 H         2.336694         2.641395         0.797516
 H         3.839785         2.628125        -0.124428
 H         2.273734         1.373328        -1.353723
 H         4.173321        -0.750401        -1.026968
