19
Iteration:  1610charge 0 multiplicity 1
 C        -0.028469         0.388578         0.030641
 C         1.464613        -0.024012         0.204512
 C         2.000469        -0.045599         1.623867
 C         3.458781        -0.065443         1.225092
 O         3.866454         1.304198         1.271975
 C         3.336921         1.832228         0.075007
 C         2.570941         0.708789        -0.569702
 C         3.282944        -0.622996        -0.263664
 O         2.064905        -1.281083        -0.373185
 H        -0.276024         0.947732         0.992328
 H        -0.100220         1.089070        -0.903806
 H        -0.662018        -0.427783        -0.167704
 H         1.825588         0.845242         2.152181
 H         1.484216        -0.908153         2.239432
 H         4.239115        -0.605943         1.789601
 H         2.744003         2.766006         0.322321
 H         4.059498         2.063804        -0.669894
 H         2.314213         1.022870        -1.674879
 H         4.138335        -1.162266        -0.760243
