19
Iteration:  4800
 C        -0.070678         0.180261        -0.137183
 C         1.354145         0.061315         0.297681
 C         1.933404         0.186497         1.683314
 C         3.485280        -0.021361         1.378244
 O         4.192987         1.240792         0.959501
 C         3.361115         1.875814        -0.074175
 C         2.570791         0.593801        -0.691882
 C         3.234335        -0.610680        -0.122854
 O         1.934822        -1.241458        -0.048169
 H        -0.093191         0.026120        -1.205162
 H        -0.742335        -0.640139         0.356053
 H        -0.574110         1.120665         0.101332
 H         1.777466         1.156958         2.139195
 H         1.591357        -0.616461         2.420218
 H         4.104832        -0.604459         1.997824
 H         2.891372         2.760439         0.348113
 H         4.008418         2.303195        -0.802233
 H         2.294331         0.622946        -1.748577
 H         3.985667        -1.242516        -0.574608
