19
Iteration:   366
 C        -0.095044         0.053349        -0.113262
 C         1.390239         0.076037         0.164045
 C         1.983283        -0.234823         1.502581
 C         3.511127        -0.365013         1.019077
 O         4.158114         0.959135         1.278013
 C         3.244685         1.931386         0.804269
 C         2.489268         1.104538        -0.269745
 C         3.227857        -0.222412        -0.457467
 O         2.075222        -1.005168        -0.690372
 H        -0.674787         1.015059         0.165342
 H        -0.156740        -0.305219        -1.145989
 H        -0.498287        -0.698977         0.547635
 H         1.709311         0.523427         2.194591
 H         1.621228        -1.157295         1.878469
 H         4.023975        -1.267892         1.362231
 H         2.802682         2.539660         1.593909
 H         3.868350         2.735353         0.281406
 H         2.300656         1.677308        -1.282183
 H         3.966250        -0.377033        -1.194862
