19
Iteration:  4301charge 0 multiplicity 1
 C        -0.135808         0.135620        -0.007293
 C         1.365706         0.092960         0.152249
 C         1.937665         0.084943         1.690533
 C         3.443257         0.014056         1.282274
 O         4.187240         1.163830         1.091031
 C         3.350878         1.933804         0.147904
 C         2.655388         0.703856        -0.660787
 C         3.255547        -0.617386        -0.226905
 O         1.973893        -1.201724        -0.285665
 H        -0.445893        -0.800465        -0.382948
 H        -0.697506         0.266811         0.960439
 H        -0.651682         0.774592        -0.671537
 H         1.819692         1.022876         2.263543
 H         1.628489        -0.816369         2.380298
 H         4.074946        -0.640840         1.904013
 H         2.463566         2.466376         0.566849
 H         3.965616         2.578090        -0.468782
 H         2.424246         0.894735        -1.778681
 H         4.082817        -1.247706        -0.593212
