19
Iteration:  1529charge 0 multiplicity 1
 C        -0.043253         0.108693        -0.156904
 C         1.410040         0.032031         0.250298
 C         1.955083         0.179646         1.653247
 C         3.380307        -0.164365         1.226680
 O         4.178296         1.090003         1.134495
 C         3.314104         1.889752         0.229747
 C         2.508838         0.832710        -0.523592
 C         3.259351        -0.490101        -0.325995
 O         2.048723        -1.218971        -0.270158
 H        -0.416567         1.155370        -0.246400
 H        -0.263959        -0.316803        -1.158166
 H        -0.823787        -0.300761         0.707289
 H         1.748379         1.150149         2.252186
 H         1.618767        -0.706030         2.156957
 H         3.883912        -0.848255         1.926917
 H         2.646524         2.564926         0.809543
 H         3.916013         2.411363        -0.467388
 H         2.267005         1.163679        -1.484331
 H         4.092725        -0.812643        -0.960803
