19
Iteration:  1100
 C         0.030432         0.424816        -0.117195
 C         1.515957         0.069193         0.171349
 C         1.977132        -0.105235         1.671109
 C         3.519102        -0.115095         1.273713
 O         3.978982         1.215601         1.160412
 C         3.111056         1.852950         0.141331
 C         2.622543         0.693027        -0.567794
 C         3.295602        -0.594985        -0.236211
 O         2.032037        -1.205118        -0.300826
 H        -0.073415         1.527305        -0.004960
 H        -0.359578         0.157283        -1.075021
 H        -0.653330        -0.049118         0.749938
 H         1.707177         0.640852         2.505415
 H         1.587246        -1.165943         1.960298
 H         4.160752        -0.774990         1.900936
 H         2.349416         2.460811         0.654547
 H         3.600324         2.608275        -0.433978
 H         2.334755         0.859114        -1.597510
 H         4.020174        -1.065526        -0.843746
