19
Iteration:  3672charge 0 multiplicity 1
 C        -0.008067         0.224586        -0.006041
 C         1.473173         0.083112         0.153228
 C         1.935860        -0.092637         1.545576
 C         3.478210        -0.132931         1.212048
 O         4.019713         1.167521         1.282596
 C         3.263666         1.931654         0.189412
 C         2.627357         0.849207        -0.558654
 C         3.253025        -0.568985        -0.275965
 O         1.978306        -1.205003        -0.378684
 H        -0.490088        -0.417069        -0.741941
 H        -0.304519        -0.101341         1.046710
 H        -0.308584         1.255035        -0.133160
 H         1.748429         0.734993         2.259729
 H         1.506527        -0.967765         1.891309
 H         4.144116        -0.599034         1.838096
 H         2.636228         2.712883         0.665634
 H         4.086591         2.441742        -0.313925
 H         2.383292         0.948485        -1.618864
 H         4.057017        -0.874727        -0.867337
