19
Iteration:   690
 C        -0.061203         0.081278        -0.087731
 C         1.375107         0.053851         0.197427
 C         1.985564        -0.071901         1.596229
 C         3.447996        -0.204357         1.173629
 O         4.141368         1.009805         1.276251
 C         3.375799         1.987634         0.529272
 C         2.476040         0.962834        -0.500301
 C         3.216120        -0.338126        -0.375319
 O         2.054285        -1.148751        -0.574649
 H        -0.336104        -0.964308        -0.427989
 H        -0.731313         0.384655         0.761790
 H        -0.528440         0.598352        -0.994383
 H         1.738551         0.754241         2.175043
 H         1.614800        -0.959300         2.087246
 H         4.082381        -0.994212         1.722541
 H         2.590817         2.616142         1.061525
 H         4.115334         2.552250        -0.027039
 H         2.186958         1.403612        -1.480947
 H         4.065064        -0.759267        -0.900443
