19
Iteration:  1630charge 0 multiplicity 1
 C        -0.028534         0.280443        -0.080391
 C         1.425777         0.026974         0.198661
 C         1.992976        -0.031458         1.635836
 C         3.503247        -0.106312         1.322325
 O         4.068391         1.220115         1.249672
 C         3.295269         1.935606         0.065472
 C         2.567345         0.734979        -0.644135
 C         3.267229        -0.498264        -0.259427
 O         1.939989        -1.315985        -0.295204
 H        -0.445894         0.867938         0.776799
 H        -0.247805         0.878835        -1.071235
 H        -0.637018        -0.645761        -0.239995
 H         1.782101         0.736127         2.352536
 H         1.666394        -0.946722         2.171526
 H         4.083800        -0.678778         2.057294
 H         2.643509         2.683934         0.514655
 H         3.974729         2.486548        -0.520215
 H         2.398195         0.942712        -1.660446
 H         4.075521        -0.836345        -0.903773
