19
Iteration:   415charge 0 multiplicity 1
 C        -0.070617         0.278706         0.025932
 C         1.431838         0.096285         0.212767
 C         2.011092        -0.483186         1.470867
 C         3.550351        -0.265533         1.053715
 O         3.970334         1.062097         1.437138
 C         3.245672         1.983486         0.539523
 C         2.547961         0.985482        -0.376473
 C         3.315565        -0.325615        -0.448392
 O         2.023183        -1.051866        -0.724537
 H        -0.509263         0.116546         0.936134
 H        -0.280336         1.198682        -0.499740
 H        -0.487761        -0.582897        -0.643866
 H         1.956989         0.099108         2.431220
 H         1.527493        -1.553491         1.651508
 H         4.285916        -0.889065         1.630999
 H         2.555857         2.603386         1.252752
 H         3.895677         2.715326         0.126218
 H         2.236785         1.422115        -1.309281
 H         4.246172        -0.463330        -1.114658
