19
Iteration:  3753charge 0 multiplicity 1
 C        -0.070674         0.161062        -0.005708
 C         1.434477         0.077008         0.191459
 C         1.949999         0.017447         1.620416
 C         3.472022        -0.213463         1.231528
 O         4.102620         1.189556         1.201067
 C         3.286957         1.939889         0.258693
 C         2.633129         0.824023        -0.553834
 C         3.251349        -0.574728        -0.287356
 O         1.968026        -1.169990        -0.406286
 H        -0.257184         0.117275        -1.165727
 H        -0.681961        -0.705825         0.320461
 H        -0.610864         1.121857         0.418842
 H         1.834300         0.926783         2.165390
 H         1.528310        -1.029130         1.876278
 H         4.210920        -0.644510         2.081431
 H         2.483950         2.513402         0.832504
 H         3.879013         2.659458        -0.335434
 H         2.688772         0.912228        -1.650615
 H         4.016948        -0.895931        -1.115324
