19
Iteration:  1088charge 0 multiplicity 1
 C         0.046178         0.406457        -0.111540
 C         1.414347         0.016937         0.221897
 C         1.996339        -0.102857         1.630496
 C         3.457977        -0.161809         1.203324
 O         3.991674         1.239182         1.152112
 C         3.197766         1.962686         0.221948
 C         2.569901         0.810006        -0.578195
 C         3.355401        -0.616142        -0.234958
 O         1.984433        -1.299297        -0.308845
 H        -0.037034         1.479411        -0.337372
 H        -0.195969        -0.216486        -0.979025
 H        -0.663210         0.104627         0.777982
 H         1.780325         0.798052         2.300722
 H         1.638704        -1.109397         2.213625
 H         4.211542        -0.655683         1.921868
 H         2.384823         2.558127         0.707986
 H         3.903935         2.480541        -0.411425
 H         2.425551         0.973724        -1.626364
 H         4.183173        -1.173943        -0.691687
