19
Iteration:  1096charge 0 multiplicity 1
 C         0.018639         0.432422        -0.110267
 C         1.479680         0.065320         0.188379
 C         1.978041        -0.100812         1.672154
 C         3.503650        -0.124492         1.238193
 O         3.975485         1.221594         1.150650
 C         3.123194         1.873189         0.163594
 C         2.618693         0.738180        -0.546739
 C         3.334493        -0.614434        -0.237038
 O         2.019346        -1.226529        -0.298621
 H         0.044744         1.514919        -0.076829
 H        -0.332815        -0.089193        -1.091483
 H        -0.497217         0.001776         0.652013
 H         1.698075         0.611146         2.423177
 H         1.592790        -1.181914         2.058975
 H         4.113612        -0.811134         1.894545
 H         2.342208         2.529537         0.691854
 H         3.647828         2.604430        -0.540047
 H         2.399672         0.931455        -1.590829
 H         4.105499        -1.200927        -0.866501
