19
Iteration:  2083charge 0 multiplicity 1
 C         0.065774         0.451618        -0.078925
 C         1.449549         0.008572         0.235900
 C         2.036581        -0.029593         1.606064
 C         3.466622        -0.071096         1.202575
 O         3.949248         1.188967         1.169381
 C         3.137812         1.827408         0.211786
 C         2.554053         0.693904        -0.602042
 C         3.299097        -0.533759        -0.258711
 O         2.033707        -1.310708        -0.267472
 H        -0.271765         1.098990         0.655154
 H         0.104390         0.974137        -0.975307
 H        -0.626220        -0.435354        -0.235117
 H         1.858565         0.852992         2.329267
 H         1.693106        -0.934024         2.090486
 H         4.256752        -0.590036         1.873503
 H         2.550876         2.661075         0.575127
 H         3.900511         2.331742        -0.507331
 H         2.196354         0.799189        -1.610246
 H         4.199222        -0.920148        -0.817224
