19
Iteration:    25charge 0 multiplicity 1
 C        -0.147632        -0.046345        -0.036177
 C         1.371326         0.070920         0.137368
 C         2.023756        -0.585689         1.401869
 C         3.490569        -0.362064         0.955527
 O         4.142158         0.810566         1.488730
 C         3.292661         1.915320         0.974409
 C         2.488520         1.253702        -0.168332
 C         3.244216        -0.024915        -0.532045
 O         2.078993        -0.697819        -0.982898
 H        -0.674160        -0.355282         0.793608
 H        -0.600429         0.922979        -0.422531
 H        -0.340278        -0.814283        -0.873579
 H         1.911125        -0.103883         2.332704
 H         1.722874        -1.734753         1.508935
 H         4.200906        -1.189110         1.206310
 H         2.655091         2.276543         1.789307
 H         3.875474         2.640722         0.609188
 H         2.213796         1.913055        -0.938226
 H         4.048626         0.063378        -1.297084
