19
Iteration:  1950
 C         0.019321         0.394156        -0.073247
 C         1.449535        -0.015752         0.190555
 C         2.041054        -0.111364         1.714694
 C         3.479238        -0.148225         1.270453
 O         4.059729         1.202724         1.176615
 C         3.141631         1.917002         0.192352
 C         2.522518         0.800426        -0.623167
 C         3.279838        -0.540743        -0.288801
 O         2.034654        -1.290298        -0.306324
 H        -0.043559         1.508092        -0.328519
 H        -0.166643        -0.032232        -1.000350
 H        -0.804420         0.226209         0.580029
 H         1.701649         0.783691         2.201315
 H         1.549818        -1.029851         2.087670
 H         4.215258        -0.705210         1.790084
 H         2.402450         2.607809         0.648498
 H         3.732179         2.759909        -0.400473
 H         2.311970         0.801625        -1.772390
 H         4.104204        -1.009518        -0.714433
