19
Iteration:  1781
 C         0.027218         0.428097        -0.039983
 C         1.478954        -0.035844         0.194061
 C         1.997775        -0.051012         1.633673
 C         3.466820        -0.228390         1.259188
 O         3.978518         1.256456         1.167917
 C         3.150989         1.891274         0.160280
 C         2.578073         0.766873        -0.592769
 C         3.266391        -0.532107        -0.293723
 O         2.047348        -1.303548        -0.291601
 H        -0.107858         1.407290         0.323023
 H        -0.231789         0.374166        -1.117601
 H        -0.586293        -0.198099         0.611004
 H         1.867936         0.891776         2.303149
 H         1.674583        -0.996957         2.100014
 H         4.097780        -0.777427         2.008116
 H         2.430166         2.676768         0.547476
 H         4.005438         2.467463        -0.455826
 H         2.435344         0.908224        -1.606778
 H         4.110933        -0.810699        -0.976645
