19
Iteration:  2872
 C        -0.102282         0.197016        -0.020662
 C         1.414972         0.065625         0.226259
 C         1.959227         0.018819         1.621516
 C         3.465723        -0.116956         1.288085
 O         4.049974         1.212565         1.224696
 C         3.382848         1.884001         0.048939
 C         2.569696         0.753314        -0.654334
 C         3.252838        -0.483502        -0.213294
 O         2.034662        -1.260715        -0.281170
 H        -0.723381         0.881674         0.777099
 H        -0.151953         0.612720        -1.025876
 H        -0.668857        -0.733166        -0.180006
 H         2.037069         0.918194         2.174710
 H         1.406096        -0.727402         2.254348
 H         4.001988        -0.811320         1.871722
 H         2.720468         2.660199         0.436541
 H         4.174035         2.228013        -0.604459
 H         2.303960         0.816699        -1.804873
 H         3.940343        -0.832768        -0.941522
