19
Iteration:  3601charge 0 multiplicity 1
 C        -0.078854         0.158366        -0.201685
 C         1.383060         0.071026         0.218712
 C         1.964570        -0.075266         1.729711
 C         3.469288        -0.061210         1.236689
 O         4.130987         1.102870         1.143003
 C         3.355932         1.935570         0.157535
 C         2.575948         0.850554        -0.558865
 C         3.236426        -0.478173        -0.211910
 O         1.947703        -1.187496        -0.296914
 H        -0.175653         0.811235        -1.091260
 H        -0.279964        -0.829570        -0.427555
 H        -0.716290         0.623293         0.553101
 H         1.655178         0.711550         2.442518
 H         1.812045        -1.147067         2.212230
 H         4.127280        -0.738278         1.877392
 H         2.685339         2.483840         0.838584
 H         4.023630         2.678595        -0.332730
 H         2.459176         1.060603        -1.600237
 H         3.980186        -1.046030        -0.845645
