19
Iteration:  2442charge 0 multiplicity 1
 C        -0.030473         0.348682         0.073727
 C         1.437390         0.064416         0.152681
 C         1.962193        -0.103107         1.621443
 C         3.489832        -0.091404         1.254110
 O         3.906044         1.262314         1.180753
 C         3.306708         1.882848         0.034518
 C         2.620361         0.717563        -0.578546
 C         3.323961        -0.578741        -0.223992
 O         2.005812        -1.247934        -0.314242
 H        -0.124303         1.362149         0.226177
 H        -0.189890         0.308932        -1.003501
 H        -0.765812        -0.219420         0.708964
 H         1.635295         0.615109         2.485086
 H         1.573597        -1.012527         1.912626
 H         4.159949        -0.615340         1.951989
 H         2.663068         2.616613         0.437141
 H         4.013067         2.286176        -0.637662
 H         2.644317         0.708560        -1.624895
 H         4.183736        -1.099796        -0.721785
