19
Iteration:  2201
 C        -0.145324         0.112283        -0.130720
 C         1.422496         0.069935         0.199098
 C         2.044142         0.053929         1.654763
 C         3.436029        -0.147774         1.277986
 O         4.138487         1.141613         1.100647
 C         3.356782         1.897389         0.195398
 C         2.594785         0.824469        -0.500535
 C         3.210791        -0.482565        -0.180385
 O         1.976783        -1.209310        -0.355041
 H        -0.276608         1.149621        -0.702168
 H        -0.266346        -0.594173        -0.929648
 H        -0.944497        -0.123171         0.677074
 H         1.799061         0.986663         2.247082
 H         1.521175        -0.754204         2.267828
 H         3.986460        -0.871524         1.875965
 H         2.656910         2.653389         0.622913
 H         3.935271         2.550703        -0.446844
 H         2.253307         1.066496        -1.530657
 H         4.166678        -0.852080        -0.592985
