19
Iteration:   419charge 0 multiplicity 1
 C        -0.034095         0.311004         0.056038
 C         1.424556         0.085957         0.231024
 C         1.997985        -0.516750         1.484144
 C         3.549136        -0.263058         1.079949
 O         3.940156         1.089878         1.457943
 C         3.241719         1.971617         0.541593
 C         2.547457         0.980536        -0.468703
 C         3.342773        -0.311105        -0.473806
 O         2.046564        -1.050349        -0.725076
 H        -0.552972         0.025599         1.033904
 H        -0.356592         1.299360        -0.333142
 H        -0.458270        -0.470437        -0.656175
 H         1.871215         0.030305         2.428958
 H         1.505038        -1.583039         1.626041
 H         4.162648        -1.016594         1.536585
 H         2.595335         2.512904         1.207482
 H         4.017354         2.696344         0.043309
 H         2.099909         1.382087        -1.356668
 H         4.202909        -0.539091        -1.060610
