19
Iteration:  1049
 C        -0.160178         0.107286        -0.072595
 C         1.436516         0.094631         0.178888
 C         1.909091         0.021802         1.606165
 C         3.444082        -0.156930         1.228347
 O         4.106111         1.140814         1.205538
 C         3.400428         1.865763         0.222982
 C         2.540340         0.847252        -0.550252
 C         3.305742        -0.475780        -0.232569
 O         2.015971        -1.159381        -0.358517
 H        -0.472053         0.933551        -0.755637
 H        -0.263358        -0.854985        -0.581814
 H        -0.839476        -0.036016         0.774523
 H         1.907486         0.942317         2.194326
 H         1.497129        -0.758078         2.182638
 H         3.911591        -0.796626         1.882024
 H         2.969604         2.822608         0.587010
 H         4.171228         2.209654        -0.539985
 H         2.193665         1.170184        -1.579974
 H         4.167982        -0.919038        -0.679951
