19
Iteration:  4916charge 0 multiplicity 1
 C        -0.074840         0.011868        -0.120625
 C         1.336720         0.137854         0.275743
 C         1.983325         0.330791         1.626005
 C         3.481661        -0.060933         1.292483
 O         4.188070         1.169084         1.021356
 C         3.423724         1.859427        -0.096678
 C         2.525016         0.706192        -0.581901
 C         3.188890        -0.596202        -0.161743
 O         1.947067        -1.277961        -0.021404
 H        -0.121286        -0.399427        -1.085390
 H        -0.589313        -0.612897         0.594389
 H        -0.589552         1.010703        -0.088865
 H         1.810098         1.375018         1.979631
 H         1.496747        -0.322990         2.305133
 H         3.911439        -0.702995         2.034836
 H         2.973411         2.800365         0.245622
 H         4.177139         2.229066        -0.846085
 H         2.194865         0.881280        -1.620852
 H         3.910361        -1.123555        -0.703008
