19
Iteration:  3544charge 0 multiplicity 1
 C        -0.039633         0.359667         0.063124
 C         1.427317         0.042933         0.108415
 C         1.915541        -0.117821         1.556051
 C         3.427656        -0.227867         1.297349
 O         4.027823         1.261543         1.202002
 C         3.239381         1.883360         0.078910
 C         2.591874         0.768761        -0.593408
 C         3.373490        -0.526878        -0.170890
 O         2.057709        -1.234021        -0.355760
 H        -0.050877         1.345639        -0.484931
 H        -0.742835        -0.310140        -0.480394
 H        -0.387210         0.378447         1.098822
 H         1.782652         0.780187         2.287839
 H         1.430791        -1.053780         1.985476
 H         4.026139        -0.651839         2.040668
 H         2.532202         2.598472         0.549795
 H         3.911915         2.446627        -0.547200
 H         2.519497         0.867774        -1.683229
 H         4.091428        -0.967186        -0.777841
