19
Iteration:   659charge 0 multiplicity 1
 C        -0.079919         0.226921        -0.112718
 C         1.448463         0.000279         0.153193
 C         2.029635        -0.211609         1.600857
 C         3.596766        -0.218541         1.199105
 O         4.110371         1.058757         1.266970
 C         3.211056         1.924211         0.523543
 C         2.482661         0.945943        -0.545479
 C         3.255940        -0.347410        -0.355934
 O         1.993685        -1.105647        -0.539412
 H        -0.655433        -0.502588         0.607533
 H        -0.333138         1.337690         0.072035
 H        -0.203348         0.089537        -1.196900
 H         1.747775         0.501427         2.353038
 H         1.596561        -1.227313         1.977637
 H         4.189741        -0.971290         1.774733
 H         2.370010         2.462554         1.100091
 H         3.791813         2.799049         0.202267
 H         2.143184         1.304317        -1.581641
 H         4.065520        -0.818135        -0.901731
