19
Iteration:  2848charge 0 multiplicity 1
 C        -0.038042         0.061481        -0.150831
 C         1.427631         0.038157         0.263924
 C         1.975660         0.045897         1.675913
 C         3.410900        -0.084788         1.248650
 O         4.087857         1.209015         1.136945
 C         3.478510         1.862229         0.157239
 C         2.521878         0.879455        -0.588234
 C         3.281763        -0.513062        -0.259982
 O         1.891655        -1.202938        -0.255404
 H        -0.663470         0.735281         0.588037
 H        -0.290323         0.161559        -1.287639
 H        -0.420258        -0.939962         0.059915
 H         1.820602         1.033599         2.201255
 H         1.762743        -0.700257         2.409612
 H         3.922954        -0.766131         1.915950
 H         2.982772         2.845878         0.536490
 H         4.201237         2.115838        -0.638058
 H         2.064824         1.188155        -1.653546
 H         3.953700        -1.176913        -0.788258
