19
Iteration:  4987
 C         0.019434         0.364935        -0.004411
 C         1.550530        -0.028465         0.294614
 C         2.006643         0.126423         1.645097
 C         3.441580         0.037378         1.304144
 O         3.946118         1.335580         1.095023
 C         3.333371         1.836559        -0.132924
 C         2.577189         0.634243        -0.693451
 C         3.200978        -0.681910        -0.173273
 O         1.954742        -1.393357        -0.107001
 H        -0.516761        -0.526209        -0.556313
 H        -0.530536         0.696086         0.934000
 H         0.137927         1.229997        -0.670100
 H         1.687926         1.029831         2.167603
 H         1.702146        -0.807437         2.231832
 H         4.221538        -0.495557         1.968392
 H         2.671250         2.730988         0.028588
 H         4.084948         2.293078        -0.748231
 H         2.197293         0.541199        -1.698688
 H         4.076416        -1.178920        -0.729886
