19
Iteration:  3313charge 0 multiplicity 1
 C        -0.117495         0.092767        -0.090381
 C         1.399108         0.087044         0.172329
 C         1.963547         0.181047         1.618577
 C         3.482301        -0.128402         1.329500
 O         4.138182         1.141484         1.108620
 C         3.364104         1.938372         0.052984
 C         2.575827         0.783991        -0.585951
 C         3.250230        -0.563262        -0.135572
 O         1.972338        -1.265711        -0.272215
 H        -0.559760        -0.858107        -0.278730
 H        -0.727015         0.479154         0.797304
 H        -0.336244         0.830977        -0.857097
 H         1.779751         1.183770         2.179733
 H         1.284468        -0.427581         2.204811
 H         4.047641        -0.739265         2.059473
 H         2.813122         2.737605         0.612449
 H         4.176820         2.319184        -0.521087
 H         2.333008         0.786483        -1.661983
 H         4.119794        -0.964515        -0.651091
