19
Iteration:  2770
 C        -0.038758         0.406961        -0.066589
 C         1.470339         0.056810         0.162388
 C         2.079625        -0.071007         1.622889
 C         3.506455        -0.122098         1.303317
 O         3.954582         1.255126         1.186350
 C         3.191033         1.838418         0.117580
 C         2.538162         0.716585        -0.551107
 C         3.321729        -0.570489        -0.274445
 O         2.032569        -1.279944        -0.287608
 H        -0.174517         1.487305        -0.070279
 H        -0.396949        -0.118959        -1.081341
 H        -0.670860         0.022473         0.790199
 H         1.886312         0.857825         2.273307
 H         1.536893        -0.780433         2.160988
 H         4.283988        -0.672323         1.930783
 H         2.432660         2.557607         0.481026
 H         3.767987         2.431736        -0.577167
 H         2.344857         0.823913        -1.644378
 H         4.080638        -1.214302        -0.803399
