19
Iteration:   819
 C        -0.045922         0.273807        -0.123319
 C         1.455295         0.025936         0.158769
 C         2.030551        -0.149150         1.621956
 C         3.496002        -0.196294         1.196103
 O         4.084600         1.142655         1.250567
 C         3.206826         1.944450         0.425053
 C         2.524270         0.891888        -0.522617
 C         3.244525        -0.465150        -0.322920
 O         2.021533        -1.231337        -0.463535
 H        -0.310294         1.288110         0.182301
 H        -0.260926         0.270026        -1.160841
 H        -0.706300        -0.487546         0.445116
 H         1.755184         0.792539         2.322787
 H         1.708152        -1.083339         2.107522
 H         4.196500        -0.937183         1.763672
 H         2.608553         2.630992         1.012613
 H         3.774876         2.628600        -0.247553
 H         2.273913         1.192434        -1.574530
 H         4.033958        -0.723836        -1.036048
