19
Iteration:  2765
 C        -0.057574         0.405214        -0.070928
 C         1.466915         0.051941         0.231935
 C         2.083827        -0.090656         1.590340
 C         3.546759        -0.136144         1.339080
 O         3.925785         1.246915         1.166161
 C         3.188097         1.847324         0.078109
 C         2.556107         0.739718        -0.586919
 C         3.292221        -0.565706        -0.240001
 O         2.045745        -1.266037        -0.273437
 H        -0.178950         1.507484        -0.162679
 H        -0.316717         0.091073        -1.015375
 H        -0.685548         0.032540         0.727596
 H         1.861468         0.792989         2.153823
 H         1.689813        -1.098111         2.057947
 H         4.133248        -0.701319         2.022732
 H         2.403552         2.566071         0.530468
 H         3.906380         2.421137        -0.594158
 H         2.423208         0.832015        -1.656866
 H         4.009946        -1.097889        -0.836910
