19
Iteration:   985
 C        -0.010821         0.249243        -0.061624
 C         1.408345        -0.023089         0.122530
 C         1.982816        -0.039678         1.697445
 C         3.418791        -0.175459         1.242928
 O         4.036718         1.148306         1.234929
 C         3.281628         1.902473         0.226410
 C         2.553545         0.855795        -0.592055
 C         3.304960        -0.447936        -0.279660
 O         2.023782        -1.225165        -0.373420
 H        -0.326174         0.443488        -1.093405
 H        -0.632690        -0.630719         0.222445
 H        -0.259864         1.086448         0.503814
 H         1.891161         0.907994         2.278094
 H         1.462000        -0.930195         2.281388
 H         4.084710        -0.834127         1.682078
 H         2.806293         2.796751         0.684093
 H         4.019507         2.358001        -0.482657
 H         2.307115         1.093793        -1.651942
 H         4.115622        -0.858998        -0.872909
