19
Iteration:  4563
 C        -0.039513         0.236601        -0.093995
 C         1.415422         0.048523         0.234203
 C         2.002145         0.088242         1.744648
 C         3.428930        -0.033026         1.259953
 O         4.133675         1.287874         1.015323
 C         3.336907         1.880027         0.008401
 C         2.544952         0.662988        -0.619676
 C         3.250375        -0.611439        -0.094770
 O         1.943878        -1.289372        -0.195574
 H        -0.724542         0.471585         0.779015
 H        -0.103346         1.072865        -0.911318
 H        -0.428905        -0.670423        -0.511779
 H         1.780203         0.878900         2.382794
 H         1.626510        -0.876419         2.108355
 H         3.996935        -0.551375         2.073430
 H         2.715195         2.706949         0.413195
 H         3.998431         2.287964        -0.800550
 H         2.320482         0.552483        -1.647258
 H         4.016586        -1.047296        -0.658575
