19
Iteration:  1295charge 0 multiplicity 1
 C        -0.024843         0.336332        -0.007498
 C         1.472528        -0.044823         0.220362
 C         2.028350        -0.058593         1.636193
 C         3.481391        -0.085444         1.317724
 O         3.912384         1.217775         1.215742
 C         3.311406         1.862673         0.128141
 C         2.560540         0.824978        -0.641453
 C         3.255469        -0.516256        -0.310000
 O         2.025079        -1.299313        -0.333854
 H         0.057883         1.424870        -0.059562
 H        -0.353067         0.060752        -1.061874
 H        -0.704909        -0.032703         0.854103
 H         1.715134         0.816806         2.159861
 H         1.672583        -0.987290         2.176554
 H         4.238155        -0.586270         1.905949
 H         2.750336         2.709831         0.511315
 H         4.111421         2.049702        -0.615414
 H         2.200304         1.059497        -1.640659
 H         3.998142        -0.978932        -0.853764
