19
Iteration:  1407charge 0 multiplicity 1
 C         0.032911         0.366025        -0.016300
 C         1.494073         0.032148         0.277981
 C         1.914184        -0.099870         1.662455
 C         3.522313        -0.101476         1.291401
 O         3.938305         1.224498         1.135404
 C         3.282928         1.892473         0.061445
 C         2.636996         0.759278        -0.627284
 C         3.309634        -0.556066        -0.231679
 O         1.950621        -1.238438        -0.316552
 H        -0.709891         0.924716         0.634624
 H        -0.084977         0.729616        -1.006813
 H        -0.490318        -0.742909         0.024763
 H         1.706099         0.879547         2.224861
 H         1.779858        -1.082997         2.096869
 H         4.142581        -0.609351         2.035308
 H         2.519362         2.555252         0.570766
 H         3.942274         2.473905        -0.588119
 H         2.286400         0.825992        -1.712399
 H         4.075763        -1.176467        -0.791115
