19
Iteration:  3755charge 0 multiplicity 1
 C        -0.077454         0.146801         0.001837
 C         1.440680         0.074266         0.193770
 C         1.951412         0.016753         1.599847
 C         3.469336        -0.207052         1.230450
 O         4.107099         1.185531         1.193115
 C         3.307335         1.946232         0.264501
 C         2.629631         0.827997        -0.554367
 C         3.261125        -0.567112        -0.258643
 O         1.955390        -1.170771        -0.420565
 H        -0.251397         0.185479        -1.093264
 H        -0.662489        -0.746434         0.287970
 H        -0.618891         1.031979         0.445141
 H         1.808502         0.922298         2.164668
 H         1.466292        -1.033140         1.909828
 H         4.121697        -0.593555         2.099513
 H         2.504900         2.500785         0.799995
 H         3.888134         2.629719        -0.384118
 H         2.673159         0.993174        -1.649446
 H         3.996194        -0.917607        -1.064069
