19
Iteration:  4651charge 0 multiplicity 1
 C        -0.034373         0.284414        -0.020786
 C         1.480469         0.029674         0.175249
 C         1.943570         0.153909         1.629824
 C         3.462041         0.006879         1.328562
 O         4.082196         1.232449         1.053030
 C         3.299458         1.880176         0.006913
 C         2.635631         0.691618        -0.696916
 C         3.230017        -0.629017        -0.129116
 O         1.952781        -1.380055        -0.175505
 H        -0.640892        -0.596324         0.364048
 H        -0.330411         1.164509         0.608678
 H        -0.387804         0.468454        -1.029944
 H         1.718083         1.067491         2.136078
 H         1.629215        -0.645414         2.296375
 H         4.116627        -0.485803         2.167403
 H         2.602871         2.515117         0.535760
 H         3.929748         2.360816        -0.786671
 H         2.289584         0.819196        -1.710131
 H         4.021728        -1.260191        -0.543149
