19
Iteration:   557charge 0 multiplicity 1
 C        -0.135954         0.121033        -0.037076
 C         1.437734         0.126215         0.208746
 C         1.935796        -0.255361         1.606429
 C         3.488594        -0.254874         1.166568
 O         4.071741         1.041061         1.321004
 C         3.349675         1.943106         0.530439
 C         2.545172         0.982727        -0.488610
 C         3.296426        -0.341986        -0.445315
 O         2.032077        -1.050835        -0.644301
 H        -0.516783         0.922331        -0.583773
 H        -0.227597        -0.758915        -0.645123
 H        -0.608713        -0.079070         1.011037
 H         1.644140         0.500369         2.311280
 H         1.585832        -1.164909         1.862180
 H         4.194554        -0.990785         1.566873
 H         2.572522         2.454786         1.159329
 H         3.950959         2.630007         0.029797
 H         2.262585         1.459602        -1.373542
 H         4.182605        -0.600031        -1.060528
