19
Iteration:  2413
 C         0.024632         0.420482        -0.024013
 C         1.437963        -0.032194         0.170951
 C         2.033215        -0.134409         1.706380
 C         3.477962        -0.085896         1.249851
 O         3.906055         1.288863         1.228735
 C         3.307065         1.885652         0.060932
 C         2.531562         0.757788        -0.573928
 C         3.262898        -0.591483        -0.325862
 O         2.048517        -1.302821        -0.296545
 H         0.090573         1.539354        -0.254641
 H        -0.426326         0.066818        -1.036654
 H        -0.723736         0.286106         0.778263
 H         1.830082         0.673282         2.455611
 H         1.646410        -1.064449         2.229055
 H         4.149949        -0.673719         1.851165
 H         2.564944         2.712088         0.509881
 H         4.040893         2.321160        -0.685146
 H         2.264852         0.928410        -1.621656
 H         4.090495        -1.146674        -0.704575
