19
Iteration:  4814charge 0 multiplicity 1
 C         0.000925         0.291724        -0.130063
 C         1.452954         0.002129         0.196517
 C         2.027666         0.211814         1.745606
 C         3.460504         0.044046         1.262323
 O         4.089429         1.254639         1.034444
 C         3.310437         1.797997        -0.140598
 C         2.536566         0.688364        -0.626691
 C         3.196839        -0.649511        -0.091416
 O         1.931792        -1.375050        -0.035271
 H        -0.153747         0.548213        -1.208358
 H        -0.623060        -0.503157         0.159609
 H        -0.242172         1.147040         0.433045
 H         1.784600         1.136019         2.302072
 H         1.602803        -0.662215         2.296442
 H         4.136559        -0.487192         2.096408
 H         2.550306         2.512271         0.209381
 H         4.044620         2.206680        -0.840519
 H         2.376434         0.570848        -1.719502
 H         4.059211        -1.121842        -0.691003
