19
Iteration:  4157charge 0 multiplicity 1
 C        -0.023527         0.258108        -0.103300
 C         1.399819         0.038341         0.254415
 C         2.023855        -0.093656         1.776135
 C         3.458460        -0.129688         1.212427
 O         4.048880         1.230309         1.049949
 C         3.305022         1.960375         0.142346
 C         2.600154         0.772511        -0.552909
 C         3.275165        -0.563501        -0.224169
 O         1.927971        -1.190077        -0.299977
 H        -0.794435         0.416960         0.616431
 H        -0.189548         0.938358        -0.942222
 H        -0.367394        -0.639681        -0.635912
 H         1.700325         0.719592         2.489461
 H         1.910071        -1.192773         2.136374
 H         4.191841        -0.695799         1.767981
 H         2.696841         2.674914         0.712484
 H         3.977334         2.662814        -0.361700
 H         2.332818         0.829504        -1.675267
 H         4.149785        -1.200412        -0.561328
