19
Iteration:   469
 C        -0.042471         0.315242         0.139451
 C         1.423223        -0.011121         0.155285
 C         2.050058        -0.433130         1.523965
 C         3.512791        -0.295924         1.135767
 O         3.932409         1.127068         1.493090
 C         3.190232         1.974004         0.447541
 C         2.595937         0.978788        -0.460516
 C         3.265056        -0.362100        -0.507831
 O         2.102346        -1.067080        -0.734106
 H        -0.641883        -0.502742        -0.120062
 H        -0.412745         0.870974         0.994150
 H        -0.181767         1.082397        -0.665007
 H         1.692506         0.159040         2.361273
 H         1.749171        -1.396687         1.666771
 H         4.179883        -1.049337         1.576443
 H         2.388427         2.530702         0.992802
 H         3.913982         2.552671        -0.020259
 H         2.337778         1.461097        -1.422286
 H         4.188915        -0.593909        -1.111163
