19
Iteration:   255
 C         0.007840         0.249814         0.058169
 C         1.464396        -0.000691         0.103630
 C         2.039999        -0.588762         1.480647
 C         3.503482        -0.310236         1.022625
 O         3.993914         0.972298         1.432258
 C         3.136275         1.906527         0.738201
 C         2.493307         1.119443        -0.386918
 C         3.344648        -0.192179        -0.451925
 O         2.029573        -0.907124        -0.802366
 H        -0.528969        -0.629597        -0.170321
 H        -0.265340         0.683183         1.027884
 H        -0.340091         1.070549        -0.682440
 H         1.840348        -0.026432         2.307042
 H         1.813415        -1.656740         1.674791
 H         4.306699        -0.937921         1.385211
 H         2.370856         2.257441         1.470512
 H         3.778825         2.822003         0.349364
 H         2.338334         1.570672        -1.401808
 H         4.137202        -0.337602        -1.216681
