19
Iteration:  1587
 C        -0.006683         0.404200         0.077031
 C         1.508620         0.029659         0.180155
 C         1.967725        -0.163664         1.644941
 C         3.435504        -0.156730         1.335740
 O         3.845181         1.264870         1.215962
 C         3.385631         1.912804        -0.020723
 C         2.589538         0.747685        -0.698851
 C         3.324344        -0.507694        -0.191303
 O         2.001652        -1.258491        -0.324670
 H        -0.265984         0.987870         0.985874
 H        -0.260355         0.909839        -0.963114
 H        -0.454488        -0.614392        -0.007964
 H         1.634290         0.590050         2.320099
 H         1.431761        -1.140612         1.979740
 H         4.234059        -0.674349         1.873923
 H         2.667861         2.705778         0.285669
 H         4.207716         2.352834        -0.520759
 H         2.342337         0.586599        -1.800207
 H         4.159393        -0.936012        -0.729660
