19
Iteration:  2034
 C        -0.112185         0.046504        -0.039299
 C         1.394517         0.089474         0.156282
 C         1.936783         0.099425         1.598540
 C         3.440911        -0.123712         1.265357
 O         4.138430         1.112265         1.241038
 C         3.450499         1.870161         0.065553
 C         2.517348         0.888434        -0.588295
 C         3.233948        -0.466498        -0.206849
 O         2.001488        -1.176863        -0.317021
 H        -0.650997         0.461601         0.967339
 H        -0.569968         0.562492        -1.001277
 H        -0.254871        -1.019553        -0.138788
 H         1.588879         0.841616         2.304718
 H         1.520443        -0.984385         1.978364
 H         3.993789        -0.663254         2.016812
 H         2.828512         2.652505         0.561066
 H         4.238058         2.387468        -0.477699
 H         2.362597         0.966283        -1.678881
 H         4.073440        -0.949329        -0.725443
