19
Iteration:  3205
 C        -0.132799         0.369890        -0.066321
 C         1.432736         0.036281         0.199026
 C         1.961483         0.062498         1.643670
 C         3.534355        -0.085662         1.321721
 O         4.056356         1.251312         1.138888
 C         3.264377         1.842528         0.093975
 C         2.593803         0.725899        -0.653666
 C         3.330361        -0.643005        -0.201160
 O         2.030828        -1.298696        -0.249486
 H        -0.801105        -0.151653         0.607384
 H        -0.239525         1.516593        -0.224991
 H        -0.273895        -0.195709        -0.989270
 H         1.493557         0.914377         2.260722
 H         1.614293        -0.846497         2.018680
 H         3.980029        -0.652462         2.117085
 H         2.481573         2.434045         0.652370
 H         3.793644         2.492546        -0.644048
 H         2.345895         0.751969        -1.722295
 H         4.112837        -1.144707        -0.744234
