19
Iteration:  4605
 C        -0.075546        -0.005683        -0.014805
 C         1.338995         0.054328         0.213521
 C         1.946748         0.290781         1.628518
 C         3.405968        -0.032957         1.257852
 O         4.132063         1.179062         1.157800
 C         3.541874         1.886842         0.001944
 C         2.537515         0.805245        -0.610003
 C         3.164277        -0.579979        -0.274012
 O         1.948508        -1.269310        -0.141792
 H        -0.617679        -0.270439         0.849996
 H        -0.455464         0.933735        -0.516646
 H        -0.172509        -0.784179        -0.704326
 H         1.849450         1.226696         2.082547
 H         1.677689        -0.447956         2.402763
 H         3.968499        -0.828825         1.671412
 H         3.070328         2.797988         0.326994
 H         4.258097         2.025602        -0.818791
 H         2.520502         0.881866        -1.668050
 H         3.996728        -1.048081        -0.704655
