19
Iteration:  3052charge 0 multiplicity 1
 C        -0.004584         0.285689        -0.147348
 C         1.452352         0.012258         0.250302
 C         2.004948        -0.138700         1.645720
 C         3.523798        -0.122644         1.345406
 O         4.036176         1.211016         1.128883
 C         3.253331         1.876070         0.096150
 C         2.517704         0.791417        -0.558452
 C         3.270222        -0.528177        -0.201689
 O         1.989017        -1.182546        -0.307926
 H         0.006904         1.232185        -0.675006
 H        -0.572201        -0.437609        -0.888238
 H        -0.751263         0.461942         0.680853
 H         1.793932         0.799542         2.280446
 H         1.750973        -1.005522         2.201773
 H         4.217126        -0.683841         1.953728
 H         2.431988         2.499593         0.523329
 H         3.837413         2.652611        -0.438331
 H         2.238118         0.918935        -1.567464
 H         4.139651        -0.944319        -0.759576
