19
Iteration:   857charge 0 multiplicity 1
 C        -0.053898        -0.000381        -0.064138
 C         1.393066         0.078817         0.132779
 C         1.972073        -0.099024         1.589225
 C         3.421613        -0.180887         1.230025
 O         4.098314         1.091154         1.271276
 C         3.463214         1.963088         0.298049
 C         2.516144         0.991745        -0.477401
 C         3.223310        -0.424220        -0.297268
 O         1.956572        -1.079730        -0.450934
 H        -0.646872        -0.128652         0.959702
 H        -0.474298         0.868241        -0.778710
 H        -0.190659        -0.932380        -0.599782
 H         1.645878         0.700225         2.098437
 H         1.509553        -1.000115         2.036102
 H         4.000375        -0.766834         1.859523
 H         3.076771         2.836088         0.843123
 H         4.253749         2.161920        -0.389038
 H         2.413491         1.077615        -1.559882
 H         4.013388        -0.877864        -0.923940
