19
Iteration:   112
 C        -0.049557         0.368250         0.147011
 C         1.502767        -0.026626         0.121449
 C         2.075668        -0.687846         1.404385
 C         3.590406        -0.329614         0.990728
 O         3.908942         0.965380         1.475357
 C         3.051824         1.857832         0.878433
 C         2.524979         1.102873        -0.334815
 C         3.360396        -0.117906        -0.560656
 O         2.095678        -0.883487        -0.952915
 H        -0.315203         0.731235        -0.779479
 H        -0.668236        -0.492881         0.455685
 H        -0.091427         1.301100         0.852494
 H         1.723463        -0.323412         2.278222
 H         1.840231        -1.789204         1.343823
 H         4.387016        -1.088486         1.238499
 H         2.185870         2.099772         1.586355
 H         3.591166         2.817573         0.783607
 H         2.023374         1.662017        -1.064108
 H         4.281657        -0.165530        -1.224335
