19
Iteration:   955
 C         0.020246         0.436954        -0.135583
 C         1.433932         0.036884         0.164922
 C         2.054345        -0.192940         1.653730
 C         3.510048        -0.176649         1.248122
 O         4.028311         1.252412         1.213672
 C         3.113956         1.958068         0.271517
 C         2.568132         0.763970        -0.542315
 C         3.301113        -0.567168        -0.255321
 O         1.978936        -1.274191        -0.374865
 H        -0.166666        -0.062981        -1.113392
 H        -0.704570         0.239029         0.734215
 H        -0.157921         1.463689        -0.337518
 H         1.914725         0.436043         2.478719
 H         1.707808        -1.245618         1.951771
 H         4.275016        -0.685225         1.798263
 H         2.504734         2.647536         0.838664
 H         3.729454         2.518484        -0.403742
 H         2.455842         0.961505        -1.589339
 H         4.009747        -0.972824        -1.031375
