19
Iteration:   804
 C         0.024197         0.349388        -0.040372
 C         1.424201        -0.015420         0.194431
 C         2.003348        -0.191195         1.526703
 C         3.514575        -0.183581         1.189810
 O         4.042006         1.139299         1.218305
 C         3.118883         1.907680         0.363681
 C         2.552331         0.867074        -0.489492
 C         3.355952        -0.444270        -0.320257
 O         1.985470        -1.167618        -0.451079
 H         0.190400         1.414586        -0.158669
 H        -0.189800        -0.203422        -0.993140
 H        -0.697625        -0.010555         0.666094
 H         1.744954         0.508838         2.366646
 H         1.605082        -1.159979         1.799018
 H         4.166354        -0.717251         1.841226
 H         2.208414         2.274795         0.979984
 H         3.751652         2.774957         0.046458
 H         2.400852         1.165523        -1.470721
 H         4.165497        -1.008146        -0.845946
