19
Iteration:    14
 C        -0.157797         0.028955        -0.007680
 C         1.396421         0.047840         0.191907
 C         2.066500        -0.598803         1.410284
 C         3.543476        -0.423595         0.969723
 O         4.108339         0.801837         1.502562
 C         3.247517         1.963529         0.996560
 C         2.440094         1.300355        -0.226304
 C         3.269438        -0.000878        -0.570926
 O         2.084287        -0.747322        -1.029008
 H        -0.690988         0.087586         0.859056
 H        -0.447816         0.891473        -0.702240
 H        -0.333308        -0.985074        -0.549843
 H         1.709522        -0.196113         2.309857
 H         1.760957        -1.775675         1.391422
 H         4.237866        -1.293177         1.108440
 H         2.582104         2.283042         1.807068
 H         3.862128         2.718427         0.824765
 H         2.077075         1.845084        -1.036209
 H         4.205039        -0.181484        -1.160063
