19
Iteration:  1756charge 0 multiplicity 1
 C         0.041874         0.469968        -0.022925
 C         1.479786        -0.005929         0.218986
 C         1.989211        -0.184533         1.670398
 C         3.478886        -0.144446         1.164856
 O         3.894840         1.344209         1.285173
 C         3.267230         1.880299         0.110411
 C         2.541042         0.725411        -0.626455
 C         3.262565        -0.556669        -0.252479
 O         2.057006        -1.323941        -0.369418
 H         0.076604         1.523531        -0.057527
 H        -0.438062         0.102841        -0.858956
 H        -0.534357         0.244705         0.963396
 H         1.910869         0.687743         2.454078
 H         1.655677        -1.117186         2.006060
 H         4.224855        -0.708665         1.685645
 H         2.516081         2.605642         0.441241
 H         4.066829         2.378154        -0.410990
 H         2.162538         0.796447        -1.717221
 H         4.105589        -0.987072        -0.705449
