19
Iteration:  2253
 C        -0.010647         0.433006        -0.032012
 C         1.482423        -0.021715         0.116974
 C         2.012349        -0.031029         1.729952
 C         3.543650        -0.110586         1.256124
 O         3.909112         1.211694         1.191325
 C         3.218723         1.920339         0.109839
 C         2.555745         0.744281        -0.606106
 C         3.316756        -0.638442        -0.232718
 O         2.027274        -1.306820        -0.335519
 H        -0.081479         1.481519         0.417930
 H        -0.235313         0.494822        -1.047329
 H        -0.713976        -0.110858         0.515692
 H         1.805290         0.892389         2.117820
 H         1.621093        -0.925945         2.353117
 H         4.126298        -0.604088         2.006501
 H         2.429662         2.591777         0.649708
 H         3.896734         2.404890        -0.587755
 H         2.328326         0.821969        -1.775558
 H         4.119423        -1.020288        -0.842737
