19
Iteration:  4802charge 0 multiplicity 1
 C        -0.057969         0.193220        -0.134586
 C         1.356396         0.057897         0.288121
 C         1.952758         0.182652         1.701570
 C         3.478092        -0.006316         1.374043
 O         4.182492         1.239596         0.971457
 C         3.351653         1.877246        -0.090320
 C         2.552500         0.584016        -0.687776
 C         3.227277        -0.608210        -0.130295
 O         1.935694        -1.253501        -0.043831
 H        -0.106298         0.111523        -1.237263
 H        -0.700304        -0.593678         0.286066
 H        -0.473870         1.107211         0.155196
 H         1.751118         1.164575         2.124623
 H         1.597470        -0.644153         2.411380
 H         4.137089        -0.669005         2.072438
 H         2.855627         2.763145         0.336840
 H         4.007807         2.319653        -0.823834
 H         2.407086         0.628583        -1.775996
 H         4.012388        -1.268013        -0.628332
