19
Iteration:  4190charge 0 multiplicity 1
 C        -0.060317         0.402694         0.106721
 C         1.441375        -0.046346         0.138178
 C         2.013927         0.030590         1.598039
 C         3.472276        -0.244589         1.249514
 O         3.935075         1.298120         1.221278
 C         3.268616         1.919162         0.107141
 C         2.491469         0.719460        -0.644534
 C         3.347271        -0.547461        -0.292737
 O         2.077969        -1.335213        -0.308361
 H        -0.418883         0.504928         1.098485
 H         0.125723         1.394746        -0.382433
 H        -0.679707        -0.171064        -0.593031
 H         1.796769         0.987719         2.126957
 H         1.538645        -0.776474         2.328980
 H         4.120302        -0.858271         1.902500
 H         2.553901         2.659340         0.495650
 H         4.026870         2.272383        -0.608319
 H         2.423967         0.895485        -1.805969
 H         4.312132        -1.060873        -0.711892
