19
Iteration:  1934charge 0 multiplicity 1
 C         0.038229         0.485308        -0.126924
 C         1.428327        -0.033621         0.219715
 C         2.012449        -0.067068         1.653877
 C         3.595063        -0.110867         1.182091
 O         3.948493         1.272378         1.207159
 C         3.128097         1.836691         0.200151
 C         2.543968         0.680733        -0.533930
 C         3.315695        -0.537947        -0.254864
 O         2.011558        -1.328622        -0.360742
 H         0.215820         1.554136        -0.121568
 H        -0.505595         0.115211        -1.126083
 H        -0.576901         0.223507         0.796213
 H         1.953701         0.851116         2.316159
 H         1.740917        -0.956887         2.354437
 H         4.312945        -0.693856         1.870689
 H         2.348675         2.386251         0.737533
 H         3.783392         2.392154        -0.360346
 H         2.224618         0.960252        -1.460028
 H         4.104104        -0.914959        -1.027498
