19
Iteration:  3004charge 0 multiplicity 1
 C        -0.078413         0.054707         0.015973
 C         1.390761         0.037691         0.130504
 C         1.895307         0.108541         1.583423
 C         3.450345        -0.081371         1.219766
 O         4.089132         1.162654         1.232929
 C         3.359843         1.873518         0.213296
 C         2.627587         0.809635        -0.599053
 C         3.301893        -0.516452        -0.271944
 O         1.986350        -1.187986        -0.334769
 H        -0.458363         0.982524        -0.555535
 H        -0.554962        -0.783018        -0.470063
 H        -0.554290         0.102372         1.029098
 H         1.703997         1.016873         2.102255
 H         1.401791        -0.680039         2.226294
 H         3.934398        -0.820484         1.914493
 H         2.831134         2.825559         0.493543
 H         4.030077         2.363076        -0.481784
 H         2.603149         0.954038        -1.721509
 H         4.196913        -0.928358        -0.804850
