19
Iteration:   412
 C        -0.091638         0.241264        -0.014419
 C         1.438326         0.093419         0.188023
 C         2.023582        -0.459666         1.474503
 C         3.549454        -0.279906         1.048456
 O         3.993443         1.039899         1.416547
 C         3.238426         1.988494         0.554148
 C         2.546841         1.000469        -0.301939
 C         3.297652        -0.334253        -0.435041
 O         2.011064        -1.046777        -0.721191
 H        -0.580904         0.219505         1.009352
 H        -0.250534         1.157473        -0.610784
 H        -0.439738        -0.570774        -0.567403
 H         1.973724         0.141237         2.387793
 H         1.661628        -1.391241         1.645933
 H         4.350662        -0.805758         1.640932
 H         2.553874         2.612365         1.190361
 H         3.858961         2.743537         0.132563
 H         2.308127         1.487094        -1.397044
 H         4.165460        -0.419508        -1.123172
