19
Iteration:  1708
 C        -0.098757         0.153386         0.010339
 C         1.465780         0.070722         0.159641
 C         1.958161        -0.006567         1.661162
 C         3.403844        -0.171231         1.250780
 O         4.058925         1.181777         1.242984
 C         3.377210         1.933998         0.104330
 C         2.585577         0.856199        -0.562705
 C         3.233512        -0.452361        -0.306147
 O         2.008939        -1.252910        -0.334106
 H        -0.405871         1.258201        -0.258978
 H        -0.277373        -0.545004        -0.935652
 H        -0.648854        -0.180648         0.859608
 H         1.829281         0.813953         2.267582
 H         1.521269        -0.987416         2.120140
 H         4.021684        -0.910436         1.810790
 H         2.744498         2.682390         0.537217
 H         4.107503         2.238951        -0.548618
 H         2.543853         1.103797        -1.653195
 H         4.080887        -0.880547        -0.940164
