19
Iteration:  1659
 C        -0.071558         0.116992        -0.177014
 C         1.405763         0.112455         0.235685
 C         1.928450         0.063430         1.663247
 C         3.522590        -0.133441         1.344463
 O         4.168370         1.097983         1.052321
 C         3.323284         1.945571         0.243081
 C         2.527298         0.824706        -0.616033
 C         3.237120        -0.516234        -0.222137
 O         1.958818        -1.215015        -0.308806
 H        -0.627116         0.808234         0.360202
 H        -0.161928         0.157571        -1.200327
 H        -0.370810        -0.948219         0.188154
 H         1.703938         1.084501         2.235601
 H         1.553907        -0.731975         2.233090
 H         4.131362        -0.632568         2.086284
 H         2.647264         2.463448         0.959647
 H         4.051685         2.650031        -0.374693
 H         2.264925         1.086590        -1.630429
 H         4.006144        -0.965322        -0.807728
