19
Iteration:  3455charge 0 multiplicity 1
 C        -0.097134         0.154657        -0.073074
 C         1.437922        -0.002646         0.182085
 C         1.902838         0.064600         1.537633
 C         3.520719        -0.059388         1.275188
 O         4.147622         1.134896         1.105041
 C         3.356067         1.915656         0.227940
 C         2.603477         0.855525        -0.607218
 C         3.276605        -0.573776        -0.120949
 O         1.881562        -1.203213        -0.316772
 H        -0.607274         0.468105         0.863731
 H        -0.277936         0.776807        -1.062972
 H        -0.402255        -0.911255        -0.292127
 H         1.662000         1.057825         2.228726
 H         1.534649        -0.730230         2.212224
 H         4.089383        -0.494929         2.151434
 H         2.619026         2.582074         0.765339
 H         4.010516         2.483686        -0.425249
 H         2.553135         0.737651        -1.774935
 H         4.053921        -1.069455        -0.734691
