19
Iteration:  1246
 C         0.030788         0.369701        -0.050362
 C         1.459191        -0.003810         0.137599
 C         2.031269        -0.070916         1.607095
 C         3.489023        -0.073858         1.248489
 O         4.026524         1.279265         1.201856
 C         3.210768         1.874880         0.196465
 C         2.549620         0.739154        -0.603384
 C         3.233627        -0.634304        -0.215590
 O         1.973992        -1.260946        -0.306091
 H         0.024234         1.488843        -0.236777
 H        -0.337309        -0.002867        -1.052292
 H        -0.493847         0.121699         0.864879
 H         1.793426         0.698542         2.428913
 H         1.771949        -1.050559         1.834852
 H         4.175206        -0.599250         1.970146
 H         2.423433         2.430409         0.754450
 H         3.770892         2.569627        -0.468130
 H         2.418426         0.742601        -1.741240
 H         4.098617        -1.041494        -0.922623
