19
Iteration:  3639
 C        -0.107748         0.098260        -0.077174
 C         1.359253        -0.000840         0.183977
 C         1.935275         0.061391         1.591747
 C         3.495222        -0.092120         1.232101
 O         4.093380         1.073925         1.258372
 C         3.386640         1.901154         0.190696
 C         2.574418         0.896699        -0.529916
 C         3.246453        -0.476028        -0.253480
 O         2.009241        -1.175540        -0.404447
 H        -0.437971        -0.025089        -1.116315
 H        -0.648763        -0.754851         0.548026
 H        -0.488938         0.983158         0.457861
 H         1.875248         1.038266         2.132304
 H         1.653184        -0.601458         2.325592
 H         3.934299        -0.870467         1.830323
 H         2.761085         2.662567         0.696477
 H         4.182051         2.339776        -0.477944
 H         2.437658         0.942324        -1.647140
 H         4.124079        -0.689179        -0.863063
