19
Iteration:  1331charge 0 multiplicity 1
 C        -0.108148         0.047110        -0.033644
 C         1.454294         0.123439         0.151194
 C         1.959767         0.040978         1.609695
 C         3.469619        -0.112831         1.321436
 O         4.107441         1.131230         1.121519
 C         3.381969         1.872130         0.135620
 C         2.589860         0.855830        -0.575101
 C         3.227062        -0.536411        -0.185361
 O         1.949398        -1.132597        -0.319478
 H        -0.778956         0.716876         0.532401
 H        -0.370524         0.151178        -1.029197
 H        -0.537193        -0.992551         0.176343
 H         1.727930         1.025273         2.273395
 H         1.467661        -0.835197         2.106557
 H         3.988608        -0.785017         1.977387
 H         2.888423         2.837605         0.513269
 H         4.120923         2.335640        -0.492655
 H         2.453910         1.074876        -1.686832
 H         4.146076        -0.923936        -0.684420
