19
Iteration:  4685charge 0 multiplicity 1
 C         0.027513         0.474152        -0.156982
 C         1.419360         0.012034         0.262186
 C         2.046793         0.031189         1.745225
 C         3.556007        -0.056029         1.277107
 O         3.908589         1.280995         1.090104
 C         3.242268         1.833894        -0.106123
 C         2.550189         0.673615        -0.673042
 C         3.281050        -0.628903        -0.124474
 O         1.975565        -1.397280        -0.080143
 H        -0.687214        -0.459820        -0.397537
 H        -0.407525         1.090127         0.610995
 H         0.171134         1.138455        -1.074952
 H         2.059158         1.018843         2.233619
 H         1.823616        -0.799718         2.381889
 H         4.446941        -0.655088         1.871929
 H         2.660074         2.635556         0.352388
 H         3.721274         2.478375        -0.942734
 H         2.114880         0.630364        -1.704172
 H         4.173000        -1.240516        -0.563031
