19
Iteration:  2088
 C         0.039060         0.472515        -0.079516
 C         1.449400        -0.003539         0.225294
 C         2.016547        -0.047688         1.642183
 C         3.501895        -0.115630         1.181047
 O         3.940981         1.208149         1.163084
 C         3.139323         1.797437         0.190624
 C         2.552706         0.700426        -0.605976
 C         3.304268        -0.499867        -0.280134
 O         2.067878        -1.320629        -0.246282
 H        -0.368536         1.266674         0.732177
 H         0.029934         0.996804        -1.139678
 H        -0.669690        -0.308396        -0.076399
 H         2.000836         0.741110         2.315045
 H         1.596941        -0.982615         2.123252
 H         4.072731        -0.497415         2.032054
 H         2.452587         2.656548         0.473913
 H         3.848200         2.325043        -0.359756
 H         2.412449         0.992523        -1.689044
 H         4.150107        -0.981555        -0.755769
