19
Iteration:  2677
 C        -0.019792         0.013195        -0.040472
 C         1.434552         0.089606         0.165780
 C         1.921896         0.186969         1.578082
 C         3.434772        -0.055768         1.258611
 O         4.193502         1.147276         1.109112
 C         3.381514         1.896311         0.208636
 C         2.560207         0.809012        -0.592792
 C         3.230407        -0.555099        -0.216909
 O         1.898358        -1.204734        -0.287225
 H        -0.703425         0.678116         0.625978
 H        -0.354809         0.200298        -1.022397
 H        -0.447886        -0.991889         0.181262
 H         1.416176         0.964653         2.124741
 H         1.511633        -0.769195         2.197917
 H         3.895482        -0.804283         1.869822
 H         2.939711         2.699483         0.963687
 H         4.039751         2.526778        -0.525368
 H         2.440031         0.877452        -1.731392
 H         4.182114        -1.006211        -0.563458
