19
Iteration:   598
 C        -0.028135         0.340666         0.103761
 C         1.447339         0.000677         0.173787
 C         1.985633        -0.350296         1.546531
 C         3.510988        -0.251142         1.142509
 O         3.865683         1.168524         1.419969
 C         3.270823         1.915856         0.386726
 C         2.586106         0.966609        -0.467272
 C         3.330599        -0.356182        -0.442498
 O         2.080598        -1.177215        -0.679661
 H        -0.313976         1.127354         0.798733
 H        -0.353758         0.614957        -0.924692
 H        -0.681610        -0.489744         0.480393
 H         1.751475         0.251631         2.482253
 H         1.532736        -1.342772         1.714144
 H         4.208321        -0.879247         1.650918
 H         2.683325         2.728664         0.805143
 H         4.153220         2.425035        -0.139633
 H         2.120452         1.274986        -1.420319
 H         4.225237        -0.703178        -1.015569
