19
Iteration:  2933
 C        -0.033363         0.330005        -0.104450
 C         1.415916         0.034745         0.197697
 C         2.020945         0.006782         1.705397
 C         3.488674        -0.076994         1.225405
 O         3.981064         1.199387         1.173729
 C         3.193792         1.843529         0.154257
 C         2.603509         0.739731        -0.609830
 C         3.285753        -0.572747        -0.236138
 O         2.049413        -1.288860        -0.269206
 H        -0.017764         1.346557         0.103690
 H        -0.185657         0.291662        -1.236203
 H        -0.780441        -0.163887         0.503907
 H         1.919830         0.936774         2.412494
 H         1.583213        -0.808871         2.241072
 H         4.257196        -0.697570         1.724183
 H         2.618002         2.681378         0.514146
 H         3.845448         2.535207        -0.419913
 H         2.360430         0.811152        -1.695835
 H         3.915478        -1.105531        -0.997685
