19
Iteration:  3337charge 0 multiplicity 1
 C        -0.057235         0.252716        -0.045059
 C         1.362449        -0.011454         0.166227
 C         1.951814         0.186114         1.585445
 C         3.447937        -0.086563         1.229676
 O         4.115459         1.237825         1.174364
 C         3.326951         1.808589         0.153307
 C         2.618579         0.723028        -0.663783
 C         3.265681        -0.551839        -0.245640
 O         2.013995        -1.323878        -0.205472
 H        -0.521580        -0.764518        -0.024476
 H        -0.612841         0.751666         0.830812
 H        -0.278010         0.839456        -0.924502
 H         1.666211         1.156713         2.105314
 H         1.439722        -0.462594         2.289473
 H         3.933078        -0.816550         1.936782
 H         2.479097         2.415176         0.565114
 H         4.055681         2.437280        -0.428371
 H         2.360682         1.119584        -1.741364
 H         4.126248        -1.088828        -0.667475
