19
Iteration:  3251charge 0 multiplicity 1
 C        -0.013314         0.300244        -0.063512
 C         1.415120         0.053457         0.253434
 C         1.951262         0.102581         1.652321
 C         3.461491        -0.028786         1.269468
 O         3.983266         1.240057         1.219790
 C         3.326781         1.858665         0.016528
 C         2.577459         0.625484        -0.592589
 C         3.285624        -0.621754        -0.260406
 O         2.038718        -1.298332        -0.262958
 H        -0.668541        -0.648540        -0.174695
 H        -0.318497         1.006008         0.800574
 H        -0.242583         0.824699        -0.991148
 H         1.756038         1.067333         2.177337
 H         1.482883        -0.735965         2.221774
 H         4.124434        -0.638779         1.947419
 H         2.600746         2.684916         0.210876
 H         4.214934         2.195715        -0.653257
 H         2.251352         0.842512        -1.711103
 H         4.101879        -1.085600        -0.827910
