19
Iteration:  3685charge 0 multiplicity 1
 C        -0.039325         0.316160         0.002761
 C         1.426683         0.019568         0.152470
 C         2.060042        -0.150161         1.605550
 C         3.490641        -0.154600         1.311802
 O         3.986177         1.201331         1.196287
 C         3.284219         1.931425         0.227138
 C         2.553933         0.789026        -0.599669
 C         3.302862        -0.484378        -0.228137
 O         1.986371        -1.199855        -0.416541
 H        -0.373015        -0.338414        -0.887676
 H        -0.827181         0.258050         0.805564
 H        -0.085887         1.349419        -0.440074
 H         1.635933         0.528846         2.389560
 H         1.830516        -1.132588         1.927906
 H         4.040494        -0.850920         1.875305
 H         2.511309         2.615189         0.664504
 H         3.960759         2.448846        -0.436285
 H         2.464620         0.932176        -1.651941
 H         4.040490        -0.974474        -0.779574
