19
Iteration:  2864charge 0 multiplicity 1
 C        -0.057316         0.138032        -0.069332
 C         1.447270         0.073924         0.200830
 C         1.942033         0.093392         1.652136
 C         3.505749        -0.127829         1.219883
 O         4.039485         1.170276         1.236390
 C         3.390376         1.904537         0.023142
 C         2.514661         0.799137        -0.536534
 C         3.186499        -0.539843        -0.239780
 O         2.009388        -1.244318        -0.265442
 H        -0.584869         0.771368         0.652537
 H        -0.152543         0.559580        -1.043461
 H        -0.465760        -0.898995        -0.072280
 H         1.871825         0.992089         2.265963
 H         1.338901        -0.703816         2.205178
 H         4.190901        -0.787683         1.796651
 H         2.949828         2.811128         0.332477
 H         4.189481         2.261569        -0.646700
 H         2.373117         0.968912        -1.557530
 H         4.060444        -0.824791        -0.860336
