19
Iteration:  1279charge 0 multiplicity 1
 C         0.074118         0.448116        -0.016413
 C         1.485875         0.021753         0.233458
 C         1.961826        -0.144342         1.655654
 C         3.493864        -0.177573         1.191360
 O         3.920027         1.271285         1.216557
 C         3.223631         1.913362         0.041933
 C         2.496574         0.697528        -0.543362
 C         3.310286        -0.559392        -0.219667
 O         2.051292        -1.254167        -0.334471
 H         0.022137         1.541730        -0.234862
 H        -0.354651        -0.086882        -0.868530
 H        -0.597907         0.177728         0.756665
 H         1.907286         0.676720         2.432801
 H         1.546040        -1.019917         2.079401
 H         4.107907        -0.816943         1.869929
 H         2.429220         2.601482         0.407341
 H         3.989891         2.452239        -0.575473
 H         2.312235         0.732020        -1.636456
 H         4.247186        -0.864939        -0.851414
