19
Iteration:  3035charge 0 multiplicity 1
 C        -0.067923         0.254166        -0.088540
 C         1.384588         0.051439         0.173261
 C         1.979255         0.021179         1.671802
 C         3.475620        -0.136976         1.183369
 O         4.046089         1.223697         1.192036
 C         3.258831         1.939259         0.191092
 C         2.594875         0.786332        -0.543024
 C         3.307043        -0.553062        -0.248671
 O         2.029615        -1.302631        -0.323227
 H        -0.197616         1.183136        -0.696886
 H        -0.361045        -0.631630        -0.527411
 H        -0.594001         0.224412         0.829767
 H         1.767682         0.846918         2.337713
 H         1.416497        -0.819778         2.196172
 H         4.116003        -0.740768         1.825844
 H         2.694513         2.742772         0.702152
 H         3.997401         2.253117        -0.529703
 H         2.358254         0.883265        -1.686855
 H         4.111786        -0.964511        -0.816860
