19
Iteration:   726charge 0 multiplicity 1
 C        -0.127955         0.124557        -0.027960
 C         1.365228         0.132897         0.219827
 C         1.976589        -0.196857         1.545673
 C         3.458912        -0.214415         1.201465
 O         4.008908         1.110981         1.331313
 C         3.409618         1.953776         0.348713
 C         2.552258         0.971972        -0.490920
 C         3.279637        -0.443264        -0.319903
 O         2.039836        -1.107473        -0.588913
 H        -0.170769        -0.588882        -0.932983
 H        -0.515577        -0.620219         0.771302
 H        -0.547024         1.078060        -0.075387
 H         1.743693         0.512135         2.348683
 H         1.659799        -1.252339         1.887994
 H         4.147755        -0.859741         1.651189
 H         2.944400         2.880735         0.857054
 H         4.300184         2.441424        -0.108403
 H         2.196309         1.193152        -1.534845
 H         4.193166        -0.714788        -0.863889
