19
Iteration:   620
 C         0.043906         0.421906         0.034427
 C         1.470717        -0.028467         0.159602
 C         2.054536        -0.418437         1.556763
 C         3.520818        -0.257798         1.183287
 O         3.871703         1.111296         1.378873
 C         3.196180         1.951784         0.366618
 C         2.486961         0.929980        -0.525361
 C         3.312372        -0.364229        -0.384821
 O         2.082609        -1.101615        -0.568577
 H        -0.452111         0.605834         0.948883
 H        -0.118041         1.218188        -0.668670
 H        -0.622307        -0.404312        -0.297319
 H         1.744069         0.362973         2.331419
 H         1.698187        -1.376818         1.928082
 H         4.333487        -0.835320         1.521634
 H         2.660454         2.608588         1.020112
 H         3.950642         2.621423        -0.164376
 H         2.121915         0.970533        -1.556779
 H         4.094545        -0.680298        -1.110676
