19
Iteration:  4720charge 0 multiplicity 1
 C        -0.025954         0.271373         0.004272
 C         1.410934         0.056169         0.216441
 C         1.952278         0.054985         1.640848
 C         3.490588         0.019618         1.351501
 O         4.068963         1.304968         1.074724
 C         3.390222         1.816361        -0.151230
 C         2.536209         0.650692        -0.672386
 C         3.302581        -0.629800        -0.099062
 O         1.901787        -1.286735        -0.157623
 H        -0.473165        -0.712062        -0.399593
 H        -0.545496         0.542095         0.933597
 H        -0.202044         1.089661        -0.815327
 H         1.615153         0.974503         2.215339
 H         1.580986        -0.784394         2.212168
 H         4.217491        -0.561895         1.932633
 H         2.679565         2.423122         0.387117
 H         4.103868         2.379272        -0.809731
 H         2.314679         0.749782        -1.763586
 H         4.200028        -1.200569        -0.442502
