19
Iteration:  3522
 C        -0.077445         0.300013        -0.035646
 C         1.404484         0.078506         0.230652
 C         1.975388        -0.098040         1.665836
 C         3.486310        -0.066021         1.297811
 O         4.010061         1.251712         1.183003
 C         3.341753         1.909798         0.138315
 C         2.616840         0.730619        -0.632844
 C         3.278470        -0.551117        -0.223009
 O         1.976676        -1.270477        -0.409660
 H        -0.220779         1.357659        -0.385716
 H        -0.397685        -0.375984        -0.887510
 H        -0.575287        -0.065788         0.855220
 H         1.522951         0.639007         2.467127
 H         1.818420        -1.147850         2.046035
 H         4.178928        -0.643752         1.852003
 H         2.751973         2.728871         0.610684
 H         4.175942         2.395311        -0.353237
 H         2.341751         1.025595        -1.657391
 H         4.011196        -1.193167        -0.611287
