19
Iteration:  2179charge 0 multiplicity 1
 C        -0.081025         0.008449        -0.150621
 C         1.375427         0.038540         0.207436
 C         1.905715         0.092936         1.643266
 C         3.532947        -0.069530         1.286310
 O         4.191975         1.108709         1.228026
 C         3.427125         1.896148         0.214022
 C         2.491791         0.851134        -0.566106
 C         3.199373        -0.472313        -0.357057
 O         1.969014        -1.175248        -0.305345
 H        -0.459223         1.090395        -0.606026
 H        -0.363245        -0.819527        -0.756298
 H        -0.485111        -0.143783         0.941673
 H         1.762734         1.088679         2.193254
 H         1.246136        -0.635642         2.289892
 H         3.930777        -0.837607         1.926749
 H         2.952119         2.852357         0.502668
 H         4.251200         2.269894        -0.375882
 H         2.174488         1.164591        -1.626286
 H         3.910285        -1.046917        -0.971685
