19
Iteration:  4733charge 0 multiplicity 1
 C        -0.134200         0.185751         0.031617
 C         1.433400         0.023149         0.169479
 C         1.984528         0.222023         1.658948
 C         3.439327        -0.037512         1.312310
 O         4.084981         1.235472         1.062959
 C         3.393040         1.867903        -0.024172
 C         2.616156         0.687522        -0.708580
 C         3.238461        -0.598382        -0.121920
 O         1.972797        -1.320182        -0.165033
 H        -0.551544        -0.734192        -0.338650
 H        -0.617250         0.362799         1.061122
 H        -0.472451         1.023306        -0.655904
 H         1.876539         1.237054         2.103583
 H         1.488787        -0.602389         2.233330
 H         3.950430        -0.489360         2.046190
 H         2.889373         2.824963         0.074407
 H         4.207837         2.119504        -0.696378
 H         2.380751         0.591732        -1.757567
 H         3.983684        -1.123192        -0.640929
