19
Iteration:  3033charge 0 multiplicity 1
 C        -0.065958         0.245554        -0.079544
 C         1.392120         0.070568         0.173243
 C         1.980623         0.013095         1.656604
 C         3.478409        -0.116954         1.205551
 O         4.053921         1.208413         1.212341
 C         3.264687         1.936960         0.190270
 C         2.584085         0.798572        -0.569631
 C         3.308429        -0.553779        -0.268454
 O         2.018878        -1.325431        -0.324149
 H        -0.225224         1.144064        -0.666610
 H        -0.423225        -0.687890        -0.537039
 H        -0.602220         0.219448         0.836874
 H         1.771548         0.915284         2.339264
 H         1.426448        -0.766116         2.225229
 H         4.059129        -0.721343         1.830350
 H         2.699411         2.747453         0.658590
 H         4.032480         2.336120        -0.529977
 H         2.321675         0.948520        -1.694145
 H         4.175115        -0.931571        -0.763893
