19
Iteration:  2331charge 0 multiplicity 1
 C        -0.074985         0.046496        -0.081979
 C         1.412420         0.056843         0.211197
 C         1.918146         0.218699         1.676501
 C         3.478780        -0.105995         1.307035
 O         4.121911         1.084531         1.135471
 C         3.382885         1.861467         0.161751
 C         2.560244         0.836972        -0.546202
 C         3.208121        -0.500240        -0.253349
 O         1.987843        -1.197295        -0.376752
 H        -0.614341         0.656640         0.691765
 H        -0.359034         0.338536        -1.038415
 H        -0.461054        -0.980497         0.052248
 H         1.862835         1.209652         2.156490
 H         1.573910        -0.670427         2.263302
 H         4.002594        -0.815373         2.014114
 H         2.886236         2.865208         0.528526
 H         4.105872         2.223204        -0.572435
 H         2.208400         1.075078        -1.633647
 H         4.119782        -1.006587        -0.697118
