19
Iteration:  2722charge 0 multiplicity 1
 C        -0.022167         0.254505        -0.025174
 C         1.415151         0.001668         0.223054
 C         1.987609         0.001802         1.621283
 C         3.521839        -0.090871         1.298599
 O         3.983373         1.256395         1.221401
 C         3.354824         1.870693         0.056826
 C         2.504101         0.758469        -0.576937
 C         3.271985        -0.574935        -0.225592
 O         1.994937        -1.255789        -0.355181
 H        -0.328754         1.217708         0.451317
 H        -0.056600         0.409212        -1.086064
 H        -0.672255        -0.595231         0.333515
 H         1.743632         0.809401         2.303035
 H         1.573348        -0.947176         2.203680
 H         4.173862        -0.499480         2.048013
 H         2.772829         2.888331         0.276136
 H         4.198001         2.145973        -0.682836
 H         2.208921         0.845665        -1.617996
 H         4.038306        -0.879778        -0.944263
