19
Iteration:  2829
 C        -0.121666         0.025335        -0.135820
 C         1.292048         0.112328         0.253265
 C         1.947542         0.109243         1.702247
 C         3.525970        -0.121128         1.266811
 O         4.197226         1.142106         1.176362
 C         3.396830         1.935183         0.076411
 C         2.587125         0.861034        -0.549628
 C         3.191527        -0.490466        -0.223579
 O         1.975624        -1.222639        -0.302530
 H        -0.699765         1.006244         0.216561
 H        -0.264642        -0.082101        -1.189635
 H        -0.609598        -0.839245         0.314508
 H         1.610812         0.954303         2.238280
 H         1.513715        -0.874432         2.065747
 H         4.180932        -0.773218         1.785043
 H         2.773717         2.588321         0.566625
 H         4.128592         2.355491        -0.589930
 H         2.470313         0.741208        -1.678434
 H         4.008847        -0.898741        -0.775343
