19
Iteration:  4725
 C        -0.081821         0.242177         0.013338
 C         1.453052         0.032071         0.188547
 C         1.983660         0.112943         1.659552
 C         3.473555        -0.002754         1.325707
 O         4.081179         1.279427         1.068145
 C         3.416318         1.831425        -0.098650
 C         2.525256         0.662963        -0.714900
 C         3.291292        -0.600420        -0.082981
 O         1.915377        -1.304253        -0.166351
 H        -0.471009        -0.655108        -0.362635
 H        -0.621806         0.492674         0.956116
 H        -0.358277         0.979992        -0.669656
 H         1.689102         1.034484         2.127317
 H         1.409334        -0.707971         2.199113
 H         4.104044        -0.508050         2.093283
 H         2.654978         2.631709         0.226049
 H         4.209119         2.313944        -0.648064
 H         2.299562         0.717854        -1.764587
 H         4.113322        -1.181325        -0.466583
