19
Iteration:  4189charge 0 multiplicity 1
 C        -0.054565         0.401463         0.103011
 C         1.440341        -0.042668         0.136190
 C         2.013940         0.027779         1.600544
 C         3.478561        -0.250417         1.262023
 O         3.943911         1.303734         1.219845
 C         3.262874         1.914814         0.104404
 C         2.486779         0.721224        -0.645738
 C         3.346340        -0.544584        -0.296554
 O         2.074226        -1.336681        -0.306768
 H        -0.456959         0.520363         1.112243
 H         0.140120         1.346393        -0.421625
 H        -0.706468        -0.164799        -0.621073
 H         1.799963         0.972247         2.151300
 H         1.543322        -0.773729         2.263809
 H         4.116329        -0.846436         1.904816
 H         2.561682         2.668903         0.513458
 H         4.037934         2.274352        -0.607183
 H         2.401104         0.904654        -1.756540
 H         4.285975        -1.049539        -0.709381
