19
Iteration:  1738
 C        -0.068068         0.373167         0.039206
 C         1.467916         0.025054         0.184825
 C         2.035707        -0.215868         1.662360
 C         3.503086        -0.144066         1.360318
 O         3.902694         1.290396         1.224570
 C         3.294852         1.934043         0.044293
 C         2.627743         0.768138        -0.556517
 C         3.327372        -0.572201        -0.261696
 O         1.953020        -1.243290        -0.425323
 H        -0.165745         1.421840        -0.305411
 H        -0.350127        -0.202074        -0.915494
 H        -0.665072         0.242416         0.916775
 H         1.703322         0.609295         2.337090
 H         1.725910        -1.254029         1.945678
 H         4.226756        -0.630972         2.061672
 H         2.631997         2.812003         0.321782
 H         4.072950         2.438098        -0.712977
 H         2.506379         0.928430        -1.559304
 H         4.060751        -1.076188        -0.942498
