19
Iteration:  1104charge 0 multiplicity 1
 C         0.042115         0.411309        -0.092217
 C         1.514516         0.061184         0.165944
 C         1.981780        -0.110300         1.672007
 C         3.522027        -0.119082         1.313078
 O         3.988217         1.217333         1.172764
 C         3.115087         1.845700         0.137892
 C         2.615663         0.671510        -0.614831
 C         3.261484        -0.565841        -0.224548
 O         2.031441        -1.207618        -0.307537
 H        -0.191909         1.501601         0.070367
 H        -0.370984         0.373185        -1.135720
 H        -0.675507        -0.006374         0.631057
 H         1.762715         0.600369         2.431703
 H         1.628977        -1.024395         1.850301
 H         4.232801        -0.642451         1.893087
 H         2.292190         2.344394         0.639715
 H         3.726068         2.628393        -0.367597
 H         2.284408         0.769122        -1.685850
 H         4.075867        -0.973865        -0.851219
