19
Iteration:  4735
 C        -0.144543         0.169849         0.031499
 C         1.410069         0.030719         0.168902
 C         1.976923         0.255525         1.647466
 C         3.426766        -0.038805         1.308403
 O         4.083081         1.224982         1.066430
 C         3.391441         1.872474        -0.023742
 C         2.643490         0.692851        -0.691987
 C         3.225211        -0.607779        -0.142910
 O         1.990418        -1.319170        -0.161084
 H        -0.552470        -0.718088        -0.323018
 H        -0.584084         0.324398         1.071962
 H        -0.438805         0.969160        -0.603488
 H         1.917890         1.242993         2.088572
 H         1.532945        -0.585141         2.296981
 H         3.991710        -0.563444         2.052710
 H         2.917965         2.869318         0.135072
 H         4.168350         2.051345        -0.743346
 H         2.440314         0.585953        -1.734622
 H         3.985586        -1.106315        -0.690474
