19
Iteration:  1291
 C         0.020044         0.347612         0.004178
 C         1.431280        -0.025623         0.220691
 C         2.030527        -0.077161         1.632704
 C         3.477552        -0.124322         1.311647
 O         3.895895         1.236262         1.197255
 C         3.283935         1.834819         0.122626
 C         2.541028         0.815093        -0.617200
 C         3.260115        -0.508180        -0.290052
 O         2.045891        -1.288013        -0.333959
 H         0.126994         1.460398        -0.063072
 H        -0.255570         0.011967        -1.050305
 H        -0.624379         0.150480         0.798859
 H         1.748435         0.810830         2.187176
 H         1.661997        -0.953206         2.080122
 H         4.278887        -0.599140         1.970814
 H         2.767734         2.732107         0.460786
 H         4.088033         2.185238        -0.617899
 H         2.258188         0.997720        -1.643485
 H         4.047985        -1.058122        -0.941439
