19
Iteration:  3599charge 0 multiplicity 1
 C        -0.087468         0.180334        -0.200441
 C         1.400035         0.065329         0.210221
 C         1.974253        -0.078532         1.725196
 C         3.478542        -0.078026         1.209959
 O         4.126387         1.112315         1.159499
 C         3.332879         1.924418         0.155262
 C         2.570276         0.837980        -0.557988
 C         3.257733        -0.483003        -0.200196
 O         1.943522        -1.179046        -0.292283
 H        -0.180282         0.853865        -1.117224
 H        -0.235455        -0.861563        -0.447710
 H        -0.723305         0.614113         0.580875
 H         1.614064         0.754494         2.432313
 H         1.750573        -1.100011         2.209161
 H         4.197492        -0.627989         1.764936
 H         2.695697         2.480429         0.861479
 H         4.023512         2.603062        -0.302540
 H         2.414942         1.018844        -1.585828
 H         3.916194        -1.025441        -0.768712
