19
Iteration:   554charge 0 multiplicity 1
 C        -0.127783         0.110742        -0.039800
 C         1.417049         0.138613         0.191361
 C         1.937116        -0.265878         1.595085
 C         3.503630        -0.243692         1.146339
 O         4.099185         1.024567         1.315062
 C         3.327663         1.945343         0.534167
 C         2.530091         0.986680        -0.442003
 C         3.280006        -0.360006        -0.459394
 O         2.048464        -1.045433        -0.626705
 H        -0.570591         0.915994        -0.687032
 H        -0.138131        -0.828287        -0.660159
 H        -0.650684         0.041063         0.953697
 H         1.638127         0.605642         2.269097
 H         1.538012        -1.189657         2.059601
 H         4.085066        -1.010791         1.660345
 H         2.608725         2.470941         1.172763
 H         4.018081         2.758552         0.083980
 H         2.230836         1.453549        -1.473209
 H         4.176818        -0.559640        -1.102722
