19
Iteration:  4954charge 0 multiplicity 1
 C        -0.246928         0.124490        -0.050669
 C         1.435604         0.104914         0.242927
 C         2.007407         0.319334         1.584721
 C         3.460115        -0.002540         1.347202
 O         4.210151         1.168160         0.964353
 C         3.333687         1.849912        -0.008914
 C         2.596661         0.690060        -0.641266
 C         3.232617        -0.631627        -0.113622
 O         1.996244        -1.302511        -0.116373
 H        -0.587147        -0.782272        -0.724085
 H        -0.875592         0.114368         0.927911
 H        -0.487627         1.017802        -0.618240
 H         1.647345         1.216904         2.095199
 H         1.598772        -0.560774         2.209389
 H         4.102634        -0.483300         2.168323
 H         2.532110         2.510847         0.437753
 H         4.045182         2.340024        -0.646691
 H         2.365005         0.491876        -1.679984
 H         4.242298        -1.107618        -0.456339
