19
Iteration:   926charge 0 multiplicity 1
 C        -0.000446         0.409339        -0.072352
 C         1.442279        -0.006502         0.230913
 C         1.970661        -0.147907         1.638490
 C         3.466594        -0.136058         1.256460
 O         4.003732         1.179541         1.243661
 C         3.170725         1.914944         0.285880
 C         2.588970         0.771152        -0.605948
 C         3.282430        -0.518405        -0.350795
 O         2.072074        -1.235698        -0.408221
 H        -0.476662        -0.483064        -0.501763
 H        -0.541148         0.784451         0.804373
 H         0.015160         1.199715        -0.960400
 H         1.829937         0.677143         2.403497
 H         1.731402        -1.038320         2.096126
 H         4.249385        -0.771616         1.865282
 H         2.364038         2.408901         0.899667
 H         3.876467         2.604552        -0.246004
 H         2.355353         1.048499        -1.634895
 H         4.035910        -0.911940        -1.078953
