19
Iteration:   483
 C        -0.054414         0.283189        -0.015789
 C         1.472764         0.040583         0.147756
 C         2.053967        -0.414583         1.544120
 C         3.525507        -0.228175         1.161798
 O         3.961698         1.048249         1.364319
 C         3.236176         1.920221         0.548253
 C         2.504554         1.013629        -0.480849
 C         3.326176        -0.309051        -0.415038
 O         2.003134        -1.060228        -0.663258
 H        -0.521615        -0.563677        -0.486113
 H        -0.359890         0.233347         0.997798
 H        -0.375072         1.235245        -0.516374
 H         1.896699         0.183862         2.442277
 H         1.845220        -1.538198         1.759426
 H         4.319703        -0.796088         1.637595
 H         2.506719         2.540688         1.136720
 H         3.897486         2.647570         0.096381
 H         2.243298         1.281297        -1.423400
 H         4.038631        -0.636343        -1.146533
