19
Iteration:  1903
 C         0.025946         0.347788        -0.013751
 C         1.435667         0.027474         0.158353
 C         1.934831        -0.143484         1.733641
 C         3.463915        -0.101680         1.219700
 O         3.985278         1.223616         1.182732
 C         3.241871         1.883530         0.109077
 C         2.630183         0.768452        -0.663351
 C         3.300811        -0.485791        -0.219427
 O         2.009247        -1.285179        -0.322926
 H        -0.068122         1.420346         0.339901
 H        -0.439208         0.330288        -1.059034
 H        -0.427198        -0.217358         0.712435
 H         1.653342         0.689254         2.394266
 H         1.535443        -1.222872         2.037328
 H         4.217537        -0.674426         1.749258
 H         2.519649         2.600646         0.526161
 H         3.958781         2.644066        -0.320629
 H         2.303796         0.925476        -1.648213
 H         4.141289        -1.007191        -0.775341
