19
Iteration:  3030charge 0 multiplicity 1
 C        -0.060477         0.224654        -0.066703
 C         1.416206         0.093518         0.178301
 C         1.976270         0.006040         1.630973
 C         3.476413        -0.082759         1.244899
 O         4.064195         1.184449         1.242198
 C         3.285983         1.928247         0.182133
 C         2.557669         0.815962        -0.620426
 C         3.298648        -0.548024        -0.292494
 O         2.004697        -1.351967        -0.324839
 H        -0.303739         1.097671        -0.641747
 H        -0.512040        -0.741695        -0.591845
 H        -0.647492         0.252816         0.909737
 H         1.815264         0.977788         2.256183
 H         1.487807        -0.718378         2.246877
 H         4.045362        -0.756288         1.900505
 H         2.678197         2.748549         0.586957
 H         4.048060         2.480117        -0.485238
 H         2.296341         1.053750        -1.613576
 H         4.290295        -0.908520        -0.720244
