19
Iteration:  4633charge 0 multiplicity 1
 C        -0.130459         0.114907         0.052399
 C         1.351495         0.063298         0.145163
 C         1.894150         0.191520         1.606714
 C         3.405620        -0.055493         1.359863
 O         4.185841         1.223704         1.033706
 C         3.423893         1.874827        -0.000687
 C         2.601685         0.668024        -0.647146
 C         3.299345        -0.610014        -0.100027
 O         1.950764        -1.180298        -0.230989
 H        -0.578496        -0.665464         0.784916
 H        -0.447037         1.126608         0.158256
 H        -0.456547        -0.243575        -1.014294
 H         1.776526         1.188897         2.199989
 H         1.506974        -0.647397         2.205470
 H         4.018041        -0.684131         2.030208
 H         2.678287         2.605008         0.455384
 H         4.026410         2.436975        -0.738475
 H         2.630200         0.434195        -1.766456
 H         4.219853        -1.142555        -0.549392
