19
Iteration:  3398charge 0 multiplicity 1
 C        -0.031185         0.349362        -0.113966
 C         1.463861        -0.003315         0.200366
 C         1.983564        -0.020416         1.645482
 C         3.472498        -0.116004         1.248399
 O         3.989817         1.271356         1.225667
 C         3.341958         1.914825         0.039298
 C         2.538137         0.781858        -0.547399
 C         3.193994        -0.599223        -0.247242
 O         2.025549        -1.324407        -0.248866
 H        -0.598215         0.064412         0.815457
 H        -0.251599         1.435168        -0.255635
 H        -0.405964        -0.320858        -0.968775
 H         1.916236         0.888155         2.331216
 H         1.715466        -0.988727         2.086828
 H         4.077345        -0.688342         1.982118
 H         2.940954         2.922628         0.304241
 H         4.165919         2.100241        -0.667279
 H         2.295569         0.911655        -1.576008
 H         4.047633        -1.099864        -0.769821
