19
Iteration:  1740
 C        -0.050593         0.387743         0.041333
 C         1.446417         0.024053         0.187648
 C         2.045135        -0.202931         1.671700
 C         3.492855        -0.165059         1.353181
 O         3.902339         1.306430         1.231444
 C         3.285471         1.940474         0.043153
 C         2.642012         0.763639        -0.552789
 C         3.316666        -0.568855        -0.267273
 O         1.961168        -1.261633        -0.424102
 H        -0.161454         1.511187        -0.312969
 H        -0.388055        -0.218366        -0.951046
 H        -0.638055         0.228871         0.897381
 H         1.714041         0.528561         2.318959
 H         1.739746        -1.287061         1.988228
 H         4.222902        -0.672295         2.035014
 H         2.651857         2.809414         0.273150
 H         3.976943         2.408736        -0.689892
 H         2.539442         0.936115        -1.619642
 H         4.092900        -1.048367        -0.969997
