19
Iteration:   497
 C        -0.035795         0.183120        -0.054001
 C         1.411167         0.064968         0.176851
 C         2.048451        -0.336024         1.544038
 C         3.539208        -0.331756         1.085155
 O         4.088284         1.065269         1.305786
 C         3.181136         1.977061         0.562746
 C         2.504619         1.019098        -0.382476
 C         3.289744        -0.338239        -0.392900
 O         1.998391        -1.030786        -0.593679
 H        -0.213499        -0.408746        -1.047921
 H        -0.854586        -0.088644         0.681010
 H        -0.190266         1.184798        -0.395241
 H         1.706048         0.336834         2.375819
 H         1.569642        -1.398644         1.731299
 H         4.166611        -1.163548         1.478656
 H         2.548301         2.512836         1.266557
 H         3.888539         2.749240         0.010448
 H         2.247648         1.477504        -1.414765
 H         4.192519        -0.546109        -0.949248
