19
Iteration:     2
 C        -0.054515         0.142303         0.017994
 C         1.439729         0.031493         0.127852
 C         2.097933        -0.653713         1.347976
 C         3.570898        -0.387519         0.923958
 O         4.017110         0.833636         1.506981
 C         3.154207         1.875287         0.999295
 C         2.437983         1.221522        -0.181720
 C         3.272551        -0.014369        -0.576770
 O         2.083032        -0.735165        -0.963271
 H        -0.456940         0.705252         0.822948
 H        -0.354680         0.601172        -0.941657
 H        -0.522165        -0.861269         0.071743
 H         1.840712        -0.219034         2.299292
 H         1.814574        -1.754011         1.351138
 H         4.276928        -1.205832         1.124328
 H         2.470800         2.199009         1.795859
 H         3.772291         2.674807         0.735030
 H         2.118607         1.840428        -0.992944
 H         4.122329        -0.063979        -1.276161
