19
Iteration:    36charge 0 multiplicity 1
 C        -0.104012        -0.070430        -0.089484
 C         1.380327         0.071075         0.085105
 C         2.015178        -0.524430         1.356900
 C         3.540850        -0.362871         0.939855
 O         4.108810         0.836614         1.467213
 C         3.310048         1.825953         0.950118
 C         2.456392         1.202992        -0.077649
 C         3.250349         0.002390        -0.522510
 O         2.028921        -0.652253        -0.886350
 H        -0.360015        -0.716657         0.655927
 H        -0.732529         0.862197         0.032043
 H        -0.309899        -0.578570        -1.099032
 H         1.775871         0.036275         2.211073
 H         1.705140        -1.650762         1.557817
 H         4.144272        -1.271295         1.188242
 H         2.801374         2.400396         1.737730
 H         3.887164         2.490140         0.480686
 H         2.318762         1.833215        -0.900949
 H         4.085636        -0.013743        -1.270072
