19
Iteration:   586charge 0 multiplicity 1
 C        -0.069507         0.268550         0.101966
 C         1.452776         0.045300         0.129224
 C         1.993163        -0.391523         1.479871
 C         3.509892        -0.250075         1.180679
 O         3.910326         1.122397         1.440028
 C         3.337057         2.023016         0.420363
 C         2.512733         0.922939        -0.490928
 C         3.316766        -0.415199        -0.397878
 O         2.051900        -1.080438        -0.644386
 H        -0.222523         1.349153         0.390634
 H        -0.519411         0.088176        -0.907671
 H        -0.459444        -0.512583         0.736945
 H         1.679767         0.481431         2.163755
 H         1.688034        -1.453500         1.848392
 H         4.267205        -0.857590         1.652250
 H         2.677695         2.712482         0.921335
 H         4.100798         2.536510        -0.282361
 H         2.362281         1.277004        -1.581869
 H         4.099378        -0.664514        -1.147136
