19
Iteration:  2723charge 0 multiplicity 1
 C        -0.007518         0.268337        -0.026551
 C         1.416718         0.000233         0.222565
 C         1.985062        -0.017291         1.621902
 C         3.519365        -0.097285         1.308054
 O         3.984438         1.267113         1.215029
 C         3.348743         1.871907         0.051919
 C         2.511259         0.764611        -0.575637
 C         3.261274        -0.582903        -0.231388
 O         1.996269        -1.256283        -0.350764
 H        -0.307173         1.199147         0.454835
 H        -0.090473         0.374371        -1.123787
 H        -0.677547        -0.593461         0.338169
 H         1.706498         0.800331         2.299830
 H         1.604357        -0.930098         2.214776
 H         4.166221        -0.494937         2.082632
 H         2.789274         2.864144         0.257463
 H         4.171409         2.146539        -0.681603
 H         2.192727         0.891731        -1.560630
 H         4.039343        -0.861921        -0.951898
