19
Iteration:  4428
 C        -0.080632         0.070308         0.008435
 C         1.416554         0.088816         0.161190
 C         1.942425         0.265819         1.588395
 C         3.426083        -0.103670         1.247121
 O         4.164154         1.173185         1.135801
 C         3.361604         1.870554         0.174557
 C         2.534781         0.758909        -0.612955
 C         3.211350        -0.537553        -0.268756
 O         2.031223        -1.326340        -0.213889
 H        -0.250087         0.822126        -0.749800
 H        -0.628747        -0.911152        -0.243974
 H        -0.658628         0.367822         1.012143
 H         1.976595         1.373925         1.846063
 H         1.270327        -0.209856         2.306591
 H         3.829541        -0.809775         1.986894
 H         2.888969         2.791675         0.547131
 H         3.990986         2.293005        -0.677427
 H         2.314557         0.853904        -1.762998
 H         4.107755        -1.022471        -0.981472
