19
Iteration:  3828
 C        -0.000612         0.171103        -0.098621
 C         1.424961         0.113744         0.221830
 C         2.018464        -0.073390         1.702251
 C         3.493779        -0.131024         1.323246
 O         4.059666         1.228636         1.244655
 C         3.308776         1.866694         0.137407
 C         2.563169         0.799257        -0.614623
 C         3.230668        -0.507567        -0.319548
 O         1.913798        -1.211110        -0.365931
 H        -0.184726         1.252540        -0.501024
 H        -0.415980        -0.541043        -0.821462
 H        -0.846643         0.274477         0.709722
 H         1.958167         0.671994         2.541260
 H         1.688033        -1.082564         1.988486
 H         4.356966        -0.707727         1.950169
 H         2.542495         2.577137         0.566300
 H         4.104053         2.287718        -0.504580
 H         2.322527         1.077110        -1.652196
 H         4.133441        -0.891978        -0.950892
