19
Iteration:   491charge 0 multiplicity 1
 C        -0.040741         0.213927        -0.043678
 C         1.452305         0.068941         0.136883
 C         2.055315        -0.388132         1.551967
 C         3.528751        -0.298005         1.106315
 O         4.025517         1.065759         1.318038
 C         3.218632         1.955309         0.566927
 C         2.479150         1.022264        -0.425824
 C         3.330640        -0.318648        -0.382207
 O         1.978471        -1.043248        -0.612548
 H        -0.277654        -0.475925        -0.793282
 H        -0.663992         0.161497         0.852669
 H        -0.335462         1.255056        -0.406208
 H         1.729387         0.255018         2.355962
 H         1.755378        -1.343630         1.723656
 H         4.305167        -0.921265         1.544559
 H         2.498159         2.472095         1.256921
 H         3.942235         2.548055         0.130289
 H         2.192705         1.299232        -1.443063
 H         4.208439        -0.612240        -1.033927
