19
Iteration:  2490
 C        -0.156924         0.080929        -0.163939
 C         1.378492         0.072195         0.178083
 C         1.988195         0.110716         1.597689
 C         3.480895        -0.120907         1.232554
 O         4.173081         1.152748         1.106775
 C         3.361974         1.855209         0.193739
 C         2.526681         0.860902        -0.558550
 C         3.259771        -0.563153        -0.209593
 O         2.009295        -1.189982        -0.201740
 H        -0.709509         0.811176         0.597893
 H        -0.472193         0.419806        -1.225858
 H        -0.573722        -0.874551         0.122775
 H         1.776635         1.080875         2.145308
 H         1.724798        -0.623634         2.478884
 H         3.879999        -0.883291         1.905291
 H         2.686620         2.711953         0.709672
 H         4.161909         2.348997        -0.469515
 H         2.194021         1.126763        -1.615130
 H         4.058302        -1.011290        -0.764568
