19
Iteration:  4769
 C        -0.091894        -0.019456        -0.028960
 C         1.354092         0.043390         0.181042
 C         1.970706         0.382257         1.599671
 C         3.413360         0.007368         1.365711
 O         4.249974         1.146944         1.050237
 C         3.437795         1.880939         0.034871
 C         2.566880         0.714148        -0.724572
 C         3.139392        -0.564083        -0.182973
 O         1.909594        -1.259572        -0.104362
 H        -0.291810        -0.807067        -0.742691
 H        -0.569644        -0.276702         0.934782
 H        -0.503187         0.856528        -0.392363
 H         1.853649         1.355299         2.037311
 H         1.605512        -0.329092         2.430668
 H         3.997997        -0.709740         2.059848
 H         3.086626         2.822397         0.506955
 H         4.173263         2.049539        -0.735183
 H         2.363760         0.665632        -1.824616
 H         3.953684        -1.094829        -0.738018
