19
Iteration:  2656charge 0 multiplicity 1
 C        -0.144598         0.080022        -0.130564
 C         1.356987         0.053549         0.194169
 C         1.959925         0.124236         1.690215
 C         3.499543        -0.087245         1.351116
 O         4.202095         1.130057         1.077669
 C         3.325406         1.878971         0.135150
 C         2.556422         0.822327        -0.546245
 C         3.238517        -0.519253        -0.224914
 O         2.015870        -1.217968        -0.319819
 H        -0.716501         0.959759         0.358550
 H        -0.338305         0.128372        -1.168903
 H        -0.779345        -0.792708         0.174688
 H         2.030865         1.051412         2.219660
 H         1.359465        -0.557745         2.423589
 H         4.054202        -0.669667         2.063063
 H         2.686540         2.560372         0.726837
 H         4.027186         2.579896        -0.416806
 H         2.413469         0.975786        -1.640857
 H         3.983023        -1.000086        -0.889392
