19
Iteration:   441
 C         0.026722         0.338994         0.144382
 C         1.464930        -0.016771         0.075781
 C         2.084013        -0.456356         1.502058
 C         3.517165        -0.275016         1.149232
 O         3.798738         1.032817         1.445408
 C         3.197509         1.946175         0.452805
 C         2.541800         1.011766        -0.441830
 C         3.293226        -0.302568        -0.442833
 O         2.090696        -1.033993        -0.717585
 H        -0.499032        -0.287921         0.977393
 H         0.130765         1.434289         0.402764
 H        -0.640415         0.296909        -0.777970
 H         1.790860         0.078357         2.428280
 H         1.757970        -1.640572         1.611730
 H         4.220181        -0.956477         1.643539
 H         2.577069         2.660135         1.005698
 H         4.093008         2.493420        -0.102163
 H         2.404753         1.486416        -1.440078
 H         4.130342        -0.438271        -1.072589
