19
Iteration:  1512charge 0 multiplicity 1
 C        -0.095549         0.078228        -0.154606
 C         1.388363         0.078284         0.154203
 C         1.933380         0.065766         1.600587
 C         3.499640        -0.092205         1.237125
 O         4.229512         1.087721         1.093111
 C         3.354274         1.931005         0.314298
 C         2.519167         0.880216        -0.587088
 C         3.216593        -0.461406        -0.204877
 O         1.935881        -1.254248        -0.244595
 H        -0.422493         1.028942        -0.531433
 H        -0.185382        -0.696607        -0.926067
 H        -0.585546        -0.270161         0.626329
 H         1.831165         0.991158         2.080439
 H         1.459149        -0.615041         2.355913
 H         4.114631        -0.797919         1.783950
 H         2.696509         2.549665         0.972485
 H         4.000824         2.689707        -0.198693
 H         2.336293         0.996599        -1.702782
 H         4.027939        -0.909722        -0.746625
