19
Iteration:  3952charge 0 multiplicity 1
 C        -0.091669         0.039612        -0.021959
 C         1.325780        -0.008215         0.212315
 C         2.017959         0.031966         1.632446
 C         3.478805        -0.075563         1.246715
 O         4.076477         1.123094         1.210852
 C         3.488025         1.875879         0.132916
 C         2.492300         0.919108        -0.587366
 C         3.201885        -0.448695        -0.234315
 O         2.010355        -1.182587        -0.358760
 H        -0.772369         0.533637         0.632729
 H        -0.379992         0.546270        -1.038762
 H        -0.610013        -0.921180        -0.237815
 H         1.815645         0.954331         1.959872
 H         1.526675        -0.487777         2.459898
 H         3.952075        -0.720812         1.892509
 H         3.285229         2.832406         0.652339
 H         4.310677         2.127699        -0.510820
 H         2.224682         1.042622        -1.663162
 H         4.009050        -0.902263        -0.741592
