19
Iteration:  3665charge 0 multiplicity 1
 C        -0.016802         0.202033         0.024785
 C         1.459503         0.098061         0.122301
 C         1.893182        -0.057052         1.582670
 C         3.465339        -0.160309         1.202788
 O         4.022064         1.200880         1.294656
 C         3.330498         1.922639         0.200460
 C         2.598620         0.884221        -0.594985
 C         3.296950        -0.584491        -0.317494
 O         1.987470        -1.219824        -0.379926
 H        -0.408671        -0.489288        -0.814370
 H        -0.374841        -0.266252         0.963418
 H        -0.471880         1.243441        -0.014017
 H         1.782394         0.793843         2.309679
 H         1.352459        -0.859251         2.208919
 H         4.121905        -0.861710         1.799403
 H         2.583354         2.554411         0.718356
 H         4.073264         2.452681        -0.394512
 H         2.395677         1.142694        -1.618230
 H         4.174118        -1.003839        -0.838469
