19
Iteration:  2356charge 0 multiplicity 1
 C        -0.126993         0.123002        -0.069716
 C         1.378128         0.045610         0.161080
 C         1.893800         0.066786         1.546206
 C         3.487287        -0.081161         1.267747
 O         4.223965         1.130275         1.099051
 C         3.396891         1.940608         0.232361
 C         2.607208         0.829608        -0.582647
 C         3.247111        -0.492221        -0.223845
 O         1.920300        -1.256782        -0.235209
 H        -0.670505         0.967369         0.290375
 H        -0.384193        -0.087208        -1.185451
 H        -0.591260        -0.822158         0.430181
 H         1.749359         1.142052         2.022806
 H         1.568370        -0.769391         2.080643
 H         4.075863        -0.810635         1.855849
 H         2.574402         2.520515         0.878127
 H         3.912425         2.770859        -0.257627
 H         2.438305         0.918731        -1.584427
 H         4.130611        -0.930912        -0.721151
