19
Iteration:  4425charge 0 multiplicity 1
 C        -0.107720         0.069156         0.009051
 C         1.444203         0.078213         0.176460
 C         1.941489         0.270956         1.578706
 C         3.429373        -0.110982         1.237593
 O         4.165297         1.195293         1.121429
 C         3.358061         1.851390         0.160301
 C         2.527362         0.764796        -0.601342
 C         3.224300        -0.572950        -0.250395
 O         2.036048        -1.322671        -0.224049
 H        -0.313919         0.845909        -0.767734
 H        -0.640170        -0.770757        -0.203695
 H        -0.588677         0.490289         0.916211
 H         2.000456         1.401335         1.913287
 H         1.160560        -0.286192         2.184626
 H         3.875182        -0.826262         2.008470
 H         2.808141         2.716711         0.656061
 H         3.960586         2.322416        -0.639311
 H         2.341415         0.919226        -1.649914
 H         4.084553        -0.926659        -0.893023
