19
Iteration:  2868charge 0 multiplicity 1
 C        -0.088595         0.164317        -0.032236
 C         1.452507         0.073574         0.207862
 C         1.939744         0.053099         1.631020
 C         3.493883        -0.118857         1.247932
 O         4.044098         1.184382         1.237444
 C         3.391108         1.893878         0.024619
 C         2.534533         0.764327        -0.583861
 C         3.193403        -0.515849        -0.219968
 O         2.029091        -1.249067        -0.273339
 H        -0.616979         0.764945         0.658813
 H        -0.104686         0.579125        -1.097793
 H        -0.571407        -0.805975        -0.149845
 H         1.986410         0.984219         2.301448
 H         1.366061        -0.630211         2.196943
 H         4.123331        -0.831345         1.835166
 H         2.794278         2.847959         0.400540
 H         4.201920         2.276313        -0.643670
 H         2.354925         0.914729        -1.674532
 H         4.002715        -0.778822        -0.944128
