19
Iteration:  4144charge 0 multiplicity 1
 C        -0.094170         0.132385        -0.165882
 C         1.436027         0.094967         0.280175
 C         2.023578        -0.052352         1.714950
 C         3.517304        -0.159033         1.305082
 O         4.143764         1.165757         1.097508
 C         3.282051         1.962016         0.133865
 C         2.564475         0.872514        -0.603597
 C         3.213387        -0.555557        -0.205055
 O         1.932074        -1.179414        -0.304968
 H        -0.702953         0.458609         0.712688
 H        -0.045837         0.860731        -0.905982
 H        -0.376551        -0.895488        -0.560264
 H         2.037855         0.752845         2.510122
 H         1.488058        -0.857798         2.122200
 H         4.168877        -0.701539         1.924467
 H         2.507688         2.562949         0.598649
 H         3.954423         2.472007        -0.562241
 H         2.250567         1.045779        -1.558924
 H         3.901744        -0.954210        -0.869048
