19
Iteration:  2516
 C        -0.011094         0.056024        -0.173454
 C         1.380754         0.067731         0.272939
 C         1.947985         0.145705         1.666284
 C         3.427636        -0.100036         1.239533
 O         4.227903         1.185841         1.042710
 C         3.397559         1.875377         0.195906
 C         2.558993         0.793267        -0.524570
 C         3.137065        -0.509751        -0.213450
 O         1.937805        -1.200599        -0.261339
 H        -0.684295         0.789646         0.394355
 H        -0.027736         0.208244        -1.214278
 H        -0.453157        -0.974325         0.004108
 H         1.810833         0.895937         2.430979
 H         1.595520        -0.822224         2.183641
 H         3.881545        -0.864294         1.895822
 H         2.575880         2.595643         0.769136
 H         4.034331         2.549401        -0.432534
 H         2.292461         0.887285        -1.609159
 H         3.968287        -0.901667        -0.876597
