19
Iteration:  4819charge 0 multiplicity 1
 C         0.034208         0.352540        -0.121120
 C         1.461751        -0.007529         0.192334
 C         2.012692         0.218292         1.698487
 C         3.474818         0.016897         1.259167
 O         4.030624         1.296943         1.032810
 C         3.299414         1.766654        -0.111199
 C         2.565327         0.665832        -0.637130
 C         3.215995        -0.666748        -0.074282
 O         1.942278        -1.412535        -0.041577
 H        -0.141987         0.652778        -1.141140
 H        -0.687904        -0.509124         0.168084
 H        -0.324969         1.208847         0.604792
 H         1.902435         1.117879         2.333409
 H         1.696938        -0.622271         2.290272
 H         4.139934        -0.420522         1.890592
 H         2.612789         2.613630         0.179495
 H         4.022039         2.194335        -0.849547
 H         2.130734         0.624062        -1.648277
 H         4.019361        -1.105367        -0.551817
