19
Iteration:  4790charge 0 multiplicity 1
 C        -0.160925         0.092984        -0.121845
 C         1.387069         0.086150         0.261150
 C         1.910843         0.248241         1.671307
 C         3.472473        -0.020516         1.265921
 O         4.221979         1.214634         0.939335
 C         3.431997         1.827602        -0.040071
 C         2.614521         0.744035        -0.625169
 C         3.230226        -0.628133        -0.047930
 O         1.915836        -1.247486        -0.076587
 H        -0.181902        -0.389854        -1.093364
 H        -0.650790        -0.644396         0.589170
 H        -0.674699         1.011918        -0.193299
 H         1.830911         1.201552         2.167768
 H         1.441942        -0.556620         2.355379
 H         4.122634        -0.493758         2.017571
 H         2.721190         2.551771         0.383972
 H         4.112496         2.237182        -0.740608
 H         2.091103         0.679860        -1.553678
 H         4.059818        -1.209489        -0.489646
