19
Iteration:  1406
 C         0.030483         0.361757        -0.012103
 C         1.491422         0.034381         0.279523
 C         1.912829        -0.089298         1.661611
 C         3.521358        -0.100376         1.292553
 O         3.946035         1.219505         1.135905
 C         3.282716         1.887554         0.065198
 C         2.640697         0.761171        -0.625996
 C         3.303448        -0.546812        -0.235836
 O         1.953123        -1.245159        -0.313524
 H        -0.729130         0.909517         0.620204
 H        -0.071212         0.724680        -1.030394
 H        -0.504494        -0.754969        -0.015798
 H         1.712770         0.840448         2.202899
 H         1.760323        -1.077862         2.113728
 H         4.154915        -0.607597         2.000744
 H         2.528310         2.539002         0.548280
 H         3.934894         2.511432        -0.594075
 H         2.295804         0.847569        -1.722096
 H         4.042733        -1.158024        -0.773351
