19
Iteration:  2473charge 0 multiplicity 1
 C        -0.075734         0.171115        -0.015316
 C         1.403069         0.046309         0.186700
 C         1.952675         0.127430         1.659542
 C         3.481652        -0.093537         1.266338
 O         4.100495         1.167983         1.221356
 C         3.332965         1.882852         0.103820
 C         2.558401         0.763769        -0.595494
 C         3.263221        -0.487729        -0.259315
 O         1.962031        -1.297867        -0.335407
 H        -0.467765         0.999005         0.555310
 H        -0.126424         0.317805        -1.047727
 H        -0.589459        -0.795461         0.133452
 H         1.848126         1.122415         2.060724
 H         1.453274        -0.659888         2.197782
 H         4.151387        -0.721750         1.893313
 H         2.782594         2.636173         0.589733
 H         4.018105         2.397493        -0.563042
 H         2.502011         0.839023        -1.705815
 H         4.137921        -0.919568        -0.835112
