19
Iteration:  4568
 C        -0.077414         0.222762        -0.107537
 C         1.422362         0.055441         0.210697
 C         2.007506         0.114279         1.756472
 C         3.430761        -0.043654         1.261424
 O         4.130048         1.273329         1.053616
 C         3.356756         1.848620        -0.022908
 C         2.527882         0.683201        -0.566015
 C         3.212253        -0.570538        -0.140638
 O         1.972906        -1.291188        -0.180388
 H        -0.802591         0.417429         0.697934
 H        -0.201129         0.940423        -0.850917
 H        -0.362181        -0.757918        -0.607779
 H         1.803529         1.056414         2.407241
 H         1.744284        -0.863333         2.196250
 H         4.084163        -0.566693         1.968179
 H         2.940426         2.764090         0.475712
 H         3.899312         2.227951        -0.893797
 H         2.449251         0.627986        -1.705626
 H         3.943666        -1.216526        -0.745531
