19
Iteration:  3215charge 0 multiplicity 1
 C        -0.057744         0.355980        -0.061484
 C         1.433508         0.039476         0.162657
 C         1.883596         0.057696         1.593843
 C         3.506024        -0.075982         1.259962
 O         4.039725         1.247579         1.109111
 C         3.218521         1.904088         0.066104
 C         2.658050         0.659677        -0.560222
 C         3.317856        -0.675793        -0.142096
 O         2.030630        -1.283971        -0.246444
 H        -0.577423        -0.161035         0.708494
 H        -0.278823         1.455863         0.259659
 H        -0.450871         0.221438        -1.112845
 H         1.697768         0.811289         2.437998
 H         1.641603        -0.894163         1.968682
 H         4.164613        -0.572812         1.954892
 H         2.421194         2.582332         0.513151
 H         3.918710         2.572235        -0.457486
 H         2.448345         0.647757        -1.598453
 H         4.081294        -1.203081        -0.698078
