19
Iteration:  1542charge 0 multiplicity 1
 C        -0.047553         0.188822        -0.111653
 C         1.386103         0.028998         0.199375
 C         1.939155         0.029084         1.681674
 C         3.534402        -0.098998         1.229687
 O         4.098081         1.149267         1.180515
 C         3.323521         1.853415         0.187530
 C         2.516742         0.858497        -0.590856
 C         3.220996        -0.497262        -0.223292
 O         2.010580        -1.249634        -0.331903
 H        -0.293211         1.244865         0.036637
 H        -0.196368        -0.146547        -1.213361
 H        -0.666582        -0.531799         0.563430
 H         1.881311         1.109512         2.018223
 H         1.480348        -0.588667         2.483320
 H         4.177437        -0.808493         1.731094
 H         2.745531         2.697845         0.654121
 H         4.044755         2.279907        -0.429318
 H         2.294720         1.041879        -1.590308
 H         4.020527        -0.983945        -0.694635
