19
Iteration:  4417charge 0 multiplicity 1
 C        -0.120551         0.142291        -0.006031
 C         1.413583         0.019974         0.186857
 C         1.936713         0.248795         1.575221
 C         3.454720        -0.104231         1.250414
 O         4.158247         1.188588         1.101294
 C         3.331348         1.846921         0.105498
 C         2.546419         0.782423        -0.585195
 C         3.257422        -0.589187        -0.189128
 O         2.017965        -1.299226        -0.238828
 H        -0.449418         0.751100        -0.856486
 H        -0.593315        -0.868503        -0.190100
 H        -0.508601         0.715449         0.935668
 H         1.833212         1.275287         2.042956
 H         1.424557        -0.480739         2.217906
 H         4.090176        -0.718184         1.924472
 H         2.623933         2.459918         0.665706
 H         4.035630         2.454957        -0.529385
 H         2.356915         1.065960        -1.689050
 H         4.243134        -0.992137        -0.767386
