19
Iteration:  3445charge 0 multiplicity 1
 C        -0.083249         0.135053        -0.022883
 C         1.404100         0.120586         0.108377
 C         1.968986         0.080545         1.600603
 C         3.449787        -0.084370         1.291974
 O         4.122052         1.211802         1.115172
 C         3.345893         1.878030         0.176726
 C         2.584847         0.791510        -0.585054
 C         3.294035        -0.662489        -0.113325
 O         1.923577        -1.237432        -0.369088
 H        -0.636786         0.509068         0.862180
 H        -0.396124         0.968581        -0.780634
 H        -0.427309        -0.838191        -0.414017
 H         1.761321         1.149484         2.168504
 H         1.557968        -0.851076         2.054160
 H         4.012609        -0.708007         2.032000
 H         2.717912         2.597151         0.782009
 H         4.038855         2.539952        -0.350256
 H         2.591821         1.179319        -1.684927
 H         4.183957        -1.182463        -0.482748
