19
Iteration:  2523charge 0 multiplicity 1
 C        -0.045784         0.070418        -0.168818
 C         1.387643         0.129846         0.268730
 C         1.973711         0.092924         1.688956
 C         3.437827        -0.095767         1.247927
 O         4.199078         1.187124         1.068463
 C         3.338320         1.827200         0.171321
 C         2.530918         0.795968        -0.518576
 C         3.220012        -0.547781        -0.226048
 O         1.940695        -1.174748        -0.276151
 H        -0.546691         0.970651         0.389344
 H        -0.063916         0.170556        -1.290169
 H        -0.453727        -0.897188         0.035652
 H         1.694023         1.042116         2.145945
 H         1.892539        -0.874350         2.313225
 H         3.889389        -0.822129         1.945486
 H         2.694431         2.555833         0.665930
 H         4.028525         2.475325        -0.468385
 H         2.180566         0.964766        -1.599733
 H         4.045517        -0.991191        -0.769120
