19
Iteration:  1646charge 0 multiplicity 1
 C        -0.049397         0.180173        -0.136645
 C         1.414826         0.076822         0.182918
 C         1.953043        -0.006745         1.662598
 C         3.446581        -0.108943         1.203937
 O         4.111554         1.175752         1.083524
 C         3.293912         1.890085         0.189821
 C         2.579788         0.840190        -0.523881
 C         3.263889        -0.590973        -0.175291
 O         2.001158        -1.166088        -0.250693
 H        -0.653793         0.819043         0.528172
 H        -0.199172         0.559188        -1.104662
 H        -0.487797        -0.824727        -0.087368
 H         1.705060         0.879348         2.339587
 H         1.571548        -0.974434         2.082648
 H         4.107483        -0.780500         1.759003
 H         2.624370         2.662949         0.666669
 H         3.992760         2.544098        -0.476321
 H         2.332815         0.871971        -1.668342
 H         4.082027        -1.212454        -0.599023
