19
Iteration:    92
 C        -0.049603         0.254822         0.065009
 C         1.443487         0.080654         0.118381
 C         2.121478        -0.640483         1.328259
 C         3.574461        -0.367261         0.996177
 O         4.033022         0.893293         1.517136
 C         3.043661         1.926598         0.901476
 C         2.404802         1.157639        -0.247859
 C         3.295200        -0.168595        -0.525689
 O         2.104773        -0.841241        -0.946630
 H        -0.376893        -0.125604        -0.831611
 H        -0.397050        -0.230471         0.980681
 H        -0.107752         1.382588         0.053586
 H         2.054255        -0.267752         2.324044
 H         1.767002        -1.750725         1.258778
 H         4.297670        -1.127882         1.408661
 H         2.300783         2.286510         1.651055
 H         3.551489         2.726667         0.549160
 H         2.338776         1.704942        -1.216755
 H         4.072944        -0.282937        -1.341298
