19
Iteration:  4037charge 0 multiplicity 1
 C        -0.014645         0.436131        -0.119933
 C         1.443759        -0.042965         0.331846
 C         2.070493        -0.092002         1.640962
 C         3.532397        -0.158426         1.183188
 O         3.950383         1.192641         1.249562
 C         3.225577         1.880299         0.145566
 C         2.445978         0.797593        -0.529842
 C         3.276728        -0.463146        -0.301027
 O         2.059608        -1.324886        -0.343909
 H         0.064121         1.474098        -0.436228
 H        -0.277728        -0.143836        -0.957937
 H        -0.855411         0.385222         0.595054
 H         2.007575         0.765519         2.390061
 H         1.890920        -1.115866         2.048936
 H         4.112820        -0.757929         1.779518
 H         2.667868         2.730911         0.585032
 H         3.941466         2.301173        -0.568887
 H         2.224596         1.030958        -1.555022
 H         4.004362        -0.789247        -0.968146
