19
Iteration:  1690charge 0 multiplicity 1
 C        -0.136412         0.067386        -0.117578
 C         1.337545         0.015527         0.220500
 C         1.949628         0.118960         1.584771
 C         3.520848        -0.144817         1.207850
 O         4.129667         1.122843         1.199731
 C         3.417606         1.903318         0.278299
 C         2.500860         0.865192        -0.580109
 C         3.249190        -0.502518        -0.282025
 O         2.012737        -1.212411        -0.310806
 H        -0.480253         1.088080        -0.042418
 H        -0.321887        -0.334834        -1.045838
 H        -0.598203        -0.445539         0.768679
 H         1.858053         1.237318         1.886967
 H         1.566350        -0.566972         2.335201
 H         4.101569        -0.779153         1.863364
 H         2.872890         2.744800         0.817109
 H         4.186811         2.438290        -0.431652
 H         2.137072         1.203510        -1.641550
 H         4.036790        -0.971591        -0.866579
