19
Iteration:    84charge 0 multiplicity 1
 C        -0.060507         0.187584         0.039450
 C         1.469049         0.044093         0.100259
 C         2.069365        -0.610159         1.327469
 C         3.630715        -0.377909         0.973986
 O         4.014546         0.884193         1.495778
 C         3.096689         1.903017         0.907923
 C         2.436056         1.175416        -0.229825
 C         3.349190        -0.134142        -0.537690
 O         2.051185        -0.801647        -0.890841
 H        -0.537668        -0.454709        -0.829943
 H        -0.618218        -0.023660         0.968388
 H        -0.282234         1.205868        -0.248628
 H         1.850286        -0.125976         2.384486
 H         1.664093        -1.643234         1.343634
 H         4.283987        -1.171578         1.310325
 H         2.519131         2.295573         1.738475
 H         3.760535         2.749588         0.625085
 H         1.983434         1.809990        -1.089044
 H         4.150111        -0.149534        -1.267396
