19
Iteration:  2148
 C        -0.107017         0.136530        -0.029852
 C         1.388096         0.076484         0.214181
 C         1.937241         0.009400         1.636245
 C         3.490977        -0.107234         1.232688
 O         4.055287         1.144674         1.248361
 C         3.387769         1.954780         0.133358
 C         2.590924         0.786243        -0.624082
 C         3.249324        -0.492442        -0.249346
 O         2.022526        -1.200186        -0.374159
 H        -0.517353         1.209590        -0.269581
 H        -0.441702        -0.554027        -0.799377
 H        -0.671252        -0.220552         0.944650
 H         1.834144         1.011408         2.274657
 H         1.393108        -0.819230         2.152140
 H         3.971298        -0.855423         1.924515
 H         2.785795         2.784158         0.453623
 H         4.344885         2.249628        -0.440919
 H         2.376559         0.811674        -1.675821
 H         4.140625        -1.029050        -0.704612
