19
Iteration:   591
 C        -0.045340         0.320288         0.096836
 C         1.450125         0.022043         0.165007
 C         1.977499        -0.371411         1.494827
 C         3.510882        -0.260009         1.174283
 O         3.883135         1.158923         1.429621
 C         3.326505         1.972292         0.409303
 C         2.548656         0.939029        -0.483174
 C         3.344399        -0.393269        -0.428062
 O         2.063730        -1.136194        -0.667581
 H        -0.355326         1.215080         0.641962
 H        -0.490506         0.264612        -0.884545
 H        -0.620730        -0.522878         0.668972
 H         1.678329         0.313184         2.251860
 H         1.552539        -1.300116         1.755772
 H         4.358260        -0.826355         1.612441
 H         2.741915         2.799867         0.930443
 H         4.039028         2.511029        -0.163998
 H         2.172440         1.198963        -1.436797
 H         4.128518        -0.700893        -1.116641
