19
Iteration:   729charge 0 multiplicity 1
 C        -0.117255         0.119623        -0.025809
 C         1.403111         0.135421         0.220207
 C         1.970430        -0.217664         1.558421
 C         3.463641        -0.194912         1.203588
 O         3.982926         1.106602         1.334965
 C         3.409578         1.955855         0.331204
 C         2.540092         0.998728        -0.513008
 C         3.286180        -0.452312        -0.316748
 O         2.032928        -1.135872        -0.596275
 H        -0.143251        -0.374489        -0.954971
 H        -0.497126        -0.504052         0.729780
 H        -0.559921         1.110919         0.053384
 H         1.741167         0.519924         2.469309
 H         1.661808        -1.217015         1.885127
 H         4.113414        -0.900020         1.717891
 H         2.990317         2.754099         0.899580
 H         4.251495         2.492181        -0.155522
 H         2.197895         1.176316        -1.487041
 H         4.223793        -0.659540        -0.871043
