19
Iteration:  2005charge 0 multiplicity 1
 C        -0.134516        -0.007630        -0.038384
 C         1.344972        -0.028988         0.233012
 C         1.951155         0.197863         1.627735
 C         3.411912        -0.113874         1.180871
 O         4.064364         1.114793         1.242881
 C         3.533667         1.892861         0.163130
 C         2.587211         0.909200        -0.512393
 C         3.242875        -0.473865        -0.297442
 O         1.992582        -1.193147        -0.390790
 H        -0.684354         0.708595         0.581455
 H        -0.335013         0.065574        -1.043582
 H        -0.415893        -1.009442         0.246351
 H         1.714808         1.219511         1.987193
 H         1.569870        -0.548931         2.354655
 H         4.018632        -0.680777         1.855091
 H         2.940204         2.681823         0.616117
 H         4.404067         2.217893        -0.515389
 H         2.266635         1.068827        -1.605722
 H         4.068844        -0.912968        -0.782298
