19
Iteration:  2143
 C        -0.103385         0.153884        -0.015520
 C         1.442096         0.075349         0.175605
 C         1.938026        -0.002903         1.665027
 C         3.478035        -0.129320         1.312286
 O         4.054848         1.175294         1.237300
 C         3.372802         1.934771         0.113479
 C         2.600208         0.759630        -0.619154
 C         3.244208        -0.518934        -0.271095
 O         2.015678        -1.176222        -0.386507
 H        -0.464037         1.199870        -0.178183
 H        -0.508831        -0.440052        -0.864728
 H        -0.624324        -0.139519         0.848522
 H         1.777317         0.878837         2.178751
 H         1.381411        -0.860058         2.122553
 H         4.149332        -0.717041         1.923960
 H         2.703917         2.757429         0.505604
 H         4.205083         2.248092        -0.444801
 H         2.213483         0.850827        -1.694769
 H         4.085240        -0.968874        -0.731273
