19
Iteration:  3498
 C        -0.047015         0.206054        -0.140732
 C         1.433086         0.038668         0.232230
 C         2.013021        -0.000971         1.629173
 C         3.502132        -0.169427         1.262574
 O         4.027175         1.168075         1.218625
 C         3.347226         1.955952         0.098160
 C         2.508306         0.772619        -0.506336
 C         3.205451        -0.499262        -0.292602
 O         1.985530        -1.226437        -0.253864
 H        -0.261912         1.284961        -0.039210
 H        -0.063527        -0.071670        -1.284407
 H        -0.643718        -0.567101         0.399315
 H         1.783723         1.034539         2.127126
 H         1.605083        -0.744661         2.308242
 H         4.138852        -0.909791         1.813112
 H         2.890506         2.861755         0.574720
 H         4.194015         2.292909        -0.493613
 H         2.322522         0.992431        -1.609721
 H         3.987427        -0.823445        -1.007640
