19
Iteration:  2794charge 0 multiplicity 1
 C        -0.006093         0.204269        -0.016691
 C         1.455982        -0.049906         0.241428
 C         1.962805         0.078825         1.583493
 C         3.464367        -0.090436         1.280464
 O         4.072148         1.176693         1.162954
 C         3.279063         1.938558         0.175918
 C         2.606477         0.821540        -0.639720
 C         3.211701        -0.517875        -0.260136
 O         1.988774        -1.317384        -0.319343
 H         0.026334         1.368600        -0.051118
 H        -0.338804        -0.194970        -1.035170
 H        -0.714262        -0.018372         0.774953
 H         1.558805         0.988255         2.046572
 H         1.684662        -0.688972         2.291875
 H         3.961520        -0.812716         1.947350
 H         2.521447         2.499734         0.669415
 H         3.859270         2.705193        -0.275153
 H         2.522218         0.912464        -1.815180
 H         3.962272        -1.071706        -0.823120
