19
Iteration:  4469
 C        -0.134899         0.124740        -0.080106
 C         1.381723         0.087471         0.212220
 C         1.933319         0.018402         1.701847
 C         3.465125        -0.040372         1.338499
 O         4.161362         1.240857         1.081112
 C         3.415491         1.914630        -0.041170
 C         2.569226         0.736835        -0.609883
 C         3.212798        -0.587586        -0.144570
 O         1.936896        -1.193737        -0.222126
 H        -0.764476         0.998779        -0.350438
 H        -0.102057        -0.520227        -0.870183
 H        -0.651519        -0.329252         0.792749
 H         1.719909         0.968731         2.380225
 H         1.709680        -0.948795         2.229854
 H         4.225706        -0.559037         2.020750
 H         2.957938         2.879825         0.304925
 H         4.297156         2.052293        -0.680415
 H         2.568558         0.738977        -1.707698
 H         4.057144        -1.015720        -0.777334
