19
Iteration:   757charge 0 multiplicity 1
 C        -0.016413         0.350531        -0.002453
 C         1.446204        -0.032833         0.156270
 C         1.970262        -0.267787         1.529204
 C         3.506584        -0.194347         1.182383
 O         3.923276         1.189026         1.362907
 C         3.249033         1.905843         0.328994
 C         2.555707         0.865091        -0.524461
 C         3.321406        -0.449039        -0.360185
 O         2.057066        -1.134057        -0.502605
 H        -0.052380         0.877752        -1.061523
 H        -0.679533        -0.585221         0.310812
 H        -0.267273         0.981832         0.878023
 H         1.771321         0.473639         2.183693
 H         1.687174        -1.213967         2.067639
 H         4.198994        -0.946523         1.581060
 H         2.589671         2.704644         0.882253
 H         4.075615         2.419894        -0.187001
 H         2.108456         1.025028        -1.577859
 H         4.193639        -0.682600        -0.956181
