19
Iteration:  3835charge 0 multiplicity 1
 C        -0.032313         0.289210        -0.061236
 C         1.476984         0.069788         0.254089
 C         2.020034        -0.114162         1.637307
 C         3.481427        -0.118750         1.293191
 O         4.049491         1.205555         1.205188
 C         3.272601         1.865493         0.150299
 C         2.560306         0.751468        -0.603654
 C         3.268498        -0.518945        -0.278158
 O         1.949097        -1.185373        -0.348829
 H        -0.161933         1.234681        -0.546877
 H        -0.173333        -0.417409        -0.871275
 H        -0.779289         0.101790         0.653288
 H         1.661408         0.627437         2.441354
 H         1.667144        -1.048714         2.034928
 H         4.239165        -0.611568         1.846376
 H         2.483591         2.528598         0.493497
 H         3.854195         2.510957        -0.548035
 H         2.241627         1.106607        -1.600973
 H         4.127684        -0.981528        -0.696924
