19
Iteration:   823
 C        -0.072576         0.258588        -0.145882
 C         1.440278         0.050637         0.165028
 C         2.028308        -0.147375         1.671865
 C         3.489918        -0.189175         1.175645
 O         4.095174         1.134558         1.270613
 C         3.249019         1.934925         0.405103
 C         2.497488         0.888056        -0.524586
 C         3.230696        -0.450605        -0.327452
 O         2.044409        -1.230226        -0.469993
 H        -0.338896         1.283250         0.346678
 H        -0.371155         0.293769        -1.273750
 H        -0.498361        -0.609547         0.338252
 H         1.798152         0.699414         2.167905
 H         1.638761        -1.049185         2.218464
 H         4.185905        -0.763845         1.700510
 H         2.656930         2.620311         1.043259
 H         3.826460         2.627250        -0.191617
 H         2.228951         1.152382        -1.581904
 H         3.992847        -0.805235        -1.009940
