19
Iteration:  1373charge 0 multiplicity 1
 C        -0.146297         0.161099        -0.132017
 C         1.365851        -0.003648         0.165289
 C         1.992833         0.133724         1.546417
 C         3.535659        -0.107597         1.247839
 O         4.162468         1.108593         1.149041
 C         3.339336         1.894880         0.225670
 C         2.496884         0.838283        -0.516922
 C         3.301035        -0.504575        -0.235669
 O         1.968206        -1.256133        -0.226502
 H        -0.739692         0.615565         0.705430
 H        -0.410804         0.641233        -1.092570
 H        -0.476585        -0.974063        -0.477213
 H         1.800062         1.128163         2.035987
 H         1.640259        -0.497441         2.407433
 H         4.136583        -0.661540         1.924427
 H         2.853509         2.756637         0.756316
 H         3.963655         2.424540        -0.534224
 H         2.275695         1.110644        -1.618849
 H         3.954167        -1.071561        -0.864768
