19
Iteration:  2396
 C         0.071201         0.333249        -0.084003
 C         1.456550        -0.017630         0.290269
 C         1.989170        -0.043033         1.625116
 C         3.524776        -0.145558         1.224870
 O         3.985092         1.220487         1.179344
 C         3.233899         1.925031         0.120578
 C         2.570752         0.743923        -0.568153
 C         3.271882        -0.507466        -0.212312
 O         1.934063        -1.287170        -0.332752
 H        -0.058729         1.408413        -0.294386
 H        -0.103442        -0.208613        -0.933440
 H        -0.558157         0.090184         0.780449
 H         1.699541         0.851199         2.173550
 H         1.547498        -0.864680         2.258003
 H         4.257144        -0.634995         1.915635
 H         2.611676         2.709178         0.504300
 H         4.038430         2.315066        -0.461382
 H         2.102917         0.857273        -1.646440
 H         4.041850        -0.860872        -0.989823
