19
Iteration:   622charge 0 multiplicity 1
 C         0.031419         0.424578         0.030426
 C         1.476707        -0.031754         0.163676
 C         2.034852        -0.419595         1.557647
 C         3.553416        -0.262698         1.174538
 O         3.879590         1.124368         1.364072
 C         3.188635         1.962777         0.370486
 C         2.495325         0.933843        -0.513058
 C         3.320303        -0.365808        -0.384677
 O         2.066563        -1.107965        -0.564735
 H        -0.496736         0.604275         0.917026
 H        -0.072986         1.277407        -0.613309
 H        -0.608893        -0.489584        -0.396218
 H         1.766912         0.340792         2.289576
 H         1.657556        -1.308144         1.833044
 H         4.361679        -0.892341         1.597399
 H         2.603391         2.591176         1.070516
 H         3.960568         2.556895        -0.125919
 H         2.085943         0.944019        -1.468406
 H         4.102137        -0.719110        -1.079012
