19
Iteration:  3648
 C        -0.149743         0.093975        -0.014521
 C         1.400439         0.009582         0.199402
 C         2.019705         0.094370         1.610258
 C         3.400555        -0.181949         1.239540
 O         4.048934         1.117811         1.276678
 C         3.367170         1.893679         0.228306
 C         2.628041         0.858447        -0.632558
 C         3.235588        -0.442003        -0.301894
 O         2.034115        -1.188565        -0.411115
 H        -0.400165        -0.061650        -1.028863
 H        -0.686991        -0.601768         0.656590
 H        -0.390448         1.127955         0.176199
 H         1.851949         1.037397         2.106555
 H         1.537022        -0.715386         2.208896
 H         4.090718        -0.776668         1.895293
 H         2.770995         2.715557         0.658853
 H         4.279094         2.360885        -0.248332
 H         2.356638         1.040043        -1.718506
 H         4.147893        -0.847464        -0.893064
