19
Iteration:  3241charge 0 multiplicity 1
 C         0.049501         0.341452        -0.008556
 C         1.483927        -0.059546         0.183127
 C         1.926705         0.139555         1.640433
 C         3.463956        -0.083006         1.364997
 O         3.974685         1.247387         1.190223
 C         3.290202         1.825569        -0.005935
 C         2.581424         0.738429        -0.699883
 C         3.287905        -0.583517        -0.219775
 O         1.985166        -1.322485        -0.262258
 H        -0.685108        -0.546435         0.193107
 H        -0.436197         1.084404         0.678767
 H        -0.005399         0.750581        -1.019233
 H         1.635473         0.934481         2.307334
 H         1.649446        -0.834466         2.165971
 H         4.148816        -0.623453         2.089591
 H         2.604969         2.572943         0.429148
 H         4.112285         2.446223        -0.523058
 H         2.260600         0.797680        -1.845046
 H         4.060306        -1.148745        -0.770223
