19
Iteration:  1242charge 0 multiplicity 1
 C         0.044725         0.346713        -0.071636
 C         1.458829         0.022147         0.142205
 C         2.016839        -0.034258         1.580869
 C         3.478944        -0.090600         1.231730
 O         4.061632         1.263621         1.220955
 C         3.188314         1.874659         0.188560
 C         2.557623         0.735771        -0.578638
 C         3.262790        -0.613008        -0.217972
 O         1.963384        -1.273305        -0.307009
 H        -0.025166         1.423961        -0.107572
 H        -0.326867        -0.039963        -0.962763
 H        -0.490390         0.061968         0.875710
 H         1.750549         0.776854         2.357836
 H         1.680663        -1.100060         1.906803
 H         4.153595        -0.609591         1.845895
 H         2.466283         2.564682         0.784539
 H         3.690487         2.524059        -0.523815
 H         2.307344         0.709220        -1.651611
 H         4.004620        -0.992616        -0.842914
