19
Iteration:  4536charge 0 multiplicity 1
 C         0.014390         0.467853         0.018262
 C         1.480104        -0.004562         0.116307
 C         2.010287         0.077165         1.683541
 C         3.463645        -0.027364         1.281533
 O         4.006258         1.307918         1.061708
 C         3.160089         1.841960         0.038002
 C         2.638256         0.613901        -0.689315
 C         3.284893        -0.685172        -0.138562
 O         2.019117        -1.346056        -0.165640
 H        -0.363732         0.883081         0.929764
 H        -0.107558         1.103854        -0.791358
 H        -0.615648        -0.445526        -0.166293
 H         1.638337         1.017952         2.264226
 H         1.477858        -0.773222         2.133202
 H         4.039906        -0.532899         2.038010
 H         2.319296         2.411780         0.507543
 H         3.705112         2.370968        -0.746532
 H         2.550894         0.534238        -1.825337
 H         4.041400        -1.304754        -0.790221
