19
Iteration:  4738charge 0 multiplicity 1
 C        -0.149274         0.148040         0.043735
 C         1.374149         0.045901         0.171507
 C         1.961534         0.289558         1.628607
 C         3.410474        -0.036872         1.298614
 O         4.081140         1.212220         1.074928
 C         3.392316         1.871833        -0.032051
 C         2.670125         0.698940        -0.657627
 C         3.209769        -0.620465        -0.170134
 O         2.011453        -1.314256        -0.154255
 H        -0.592138        -0.799339        -0.353465
 H        -0.515966         0.272000         1.030864
 H        -0.410566         0.964949        -0.581160
 H         1.944531         1.277494         2.077544
 H         1.616162        -0.477537         2.353525
 H         4.073237        -0.689055         2.067974
 H         2.940899         2.875899         0.257249
 H         4.160797         2.003692        -0.842905
 H         2.525796         0.619179        -1.758396
 H         4.051701        -1.115901        -0.765653
