19
Iteration:   688charge 0 multiplicity 1
 C        -0.070241         0.086724        -0.080276
 C         1.394515         0.052475         0.187442
 C         1.984784        -0.081665         1.591462
 C         3.440851        -0.207140         1.155053
 O         4.140737         1.015491         1.265740
 C         3.360035         1.984075         0.542794
 C         2.484268         0.952539        -0.479741
 C         3.201700        -0.338761        -0.378230
 O         2.067685        -1.145880        -0.567208
 H        -0.284960        -0.925869        -0.354516
 H        -0.708555         0.452946         0.682184
 H        -0.518350         0.600631        -1.049133
 H         1.744934         0.794598         2.220854
 H         1.620061        -0.905827         2.083794
 H         4.023809        -1.025566         1.725314
 H         2.627973         2.618996         1.044426
 H         4.044574         2.586718        -0.056336
 H         2.223827         1.352053        -1.429052
 H         4.054551        -0.778679        -0.904621
