19
Iteration:  3888
 C        -0.012030         0.328148        -0.023716
 C         1.425935         0.025116         0.179442
 C         1.968500         0.022099         1.628672
 C         3.505450        -0.111178         1.198761
 O         4.022950         1.196970         1.220231
 C         3.217119         1.909943         0.188733
 C         2.565816         0.687448        -0.599323
 C         3.289741        -0.597575        -0.260802
 O         2.019397        -1.251949        -0.341015
 H        -0.194798         1.045673         0.754175
 H        -0.205482         0.887313        -1.022900
 H        -0.475969        -0.621945         0.206849
 H         1.875220         1.034698         2.112944
 H         1.642913        -0.863759         2.268012
 H         4.127941        -0.599756         1.852778
 H         2.419148         2.533414         0.632353
 H         3.837043         2.575945        -0.444951
 H         2.392048         0.746480        -1.708139
 H         4.084365        -0.969613        -0.854416
