19
Iteration:    29charge 0 multiplicity 1
 C        -0.113267        -0.053080        -0.066955
 C         1.365207         0.071264         0.096388
 C         2.013270        -0.581158         1.377180
 C         3.506279        -0.335261         0.940954
 O         4.127278         0.834483         1.475306
 C         3.289503         1.853297         0.960961
 C         2.501782         1.211001        -0.105389
 C         3.230920        -0.019071        -0.526546
 O         2.063313        -0.666240        -0.931226
 H        -0.621421        -0.596926         0.850262
 H        -0.682893         0.863254        -0.290046
 H        -0.375492        -0.699479        -0.919081
 H         1.922854         0.004429         2.367568
 H         1.715835        -1.660045         1.537797
 H         4.102242        -1.227152         1.215840
 H         2.717274         2.270281         1.807600
 H         4.024174         2.632478         0.455006
 H         2.300899         1.936541        -0.969147
 H         4.033863         0.096103        -1.286670
