19
Iteration:  2248charge 0 multiplicity 1
 C         0.021809         0.450516        -0.034720
 C         1.458888        -0.029489         0.155847
 C         2.024703        -0.041654         1.652106
 C         3.502569        -0.112435         1.279767
 O         3.930843         1.235697         1.179038
 C         3.207653         1.878653         0.170318
 C         2.555415         0.742398        -0.639382
 C         3.299313        -0.600398        -0.254805
 O         2.016038        -1.332739        -0.322509
 H        -0.031391         1.476047         0.253648
 H        -0.367066         0.369847        -1.132169
 H        -0.656732        -0.230726         0.592701
 H         1.886704         0.964173         2.248823
 H         1.740327        -0.801034         2.329871
 H         4.174772        -0.530277         2.074055
 H         2.559140         2.609666         0.578450
 H         3.908901         2.491150        -0.467442
 H         2.389103         0.857317        -1.656803
 H         4.105416        -1.051086        -0.871248
