19
Iteration:  3101
 C        -0.047795         0.293674         0.009524
 C         1.481182        -0.016942         0.161762
 C         1.958322         0.056619         1.622939
 C         3.473121        -0.119010         1.282952
 O         4.020601         1.154019         1.236680
 C         3.237963         1.902520         0.153378
 C         2.531909         0.744858        -0.697350
 C         3.377060        -0.486603        -0.262560
 O         1.996585        -1.259680        -0.309721
 H        -0.329144         1.393838         0.056210
 H        -0.335446        -0.021212        -0.945995
 H        -0.739515        -0.355907         0.539761
 H         1.854188         0.955527         2.230961
 H         1.529524        -0.792443         2.324407
 H         4.113282        -0.851225         1.883269
 H         2.603119         2.739936         0.551264
 H         4.036583         2.291904        -0.488954
 H         2.362319         0.921302        -1.841701
 H         4.196425        -1.032796        -0.780373
