19
Iteration:  2401
 C         0.071865         0.362366        -0.054216
 C         1.465037        -0.044728         0.307674
 C         1.964917        -0.055830         1.657174
 C         3.513944        -0.119434         1.210321
 O         3.937885         1.245727         1.176323
 C         3.243349         1.899065         0.136760
 C         2.563298         0.767145        -0.579593
 C         3.295949        -0.577636        -0.242298
 O         1.960750        -1.296566        -0.329783
 H         0.198025         1.445663        -0.230185
 H        -0.234168        -0.220114        -1.034849
 H        -0.720784         0.253848         0.757372
 H         1.638261         0.922587         2.220854
 H         1.683682        -1.010243         2.089113
 H         4.275037        -0.612153         1.791407
 H         2.650023         2.934999         0.405329
 H         4.082379         2.287485        -0.521607
 H         2.388560         0.908968        -1.589312
 H         3.941921        -0.814423        -1.050999
