19
Iteration:  2480charge 0 multiplicity 1
 C        -0.122683         0.131239        -0.083639
 C         1.369073         0.020683         0.201631
 C         1.995070         0.172782         1.595211
 C         3.447507        -0.117399         1.235971
 O         4.128654         1.171593         1.177487
 C         3.372587         1.832547         0.161102
 C         2.549944         0.761423        -0.538382
 C         3.246413        -0.504318        -0.238794
 O         2.020579        -1.217392        -0.280767
 H        -0.633717         0.967710         0.602899
 H        -0.355754         0.373856        -1.174170
 H        -0.598378        -0.827430         0.107730
 H         2.036681         1.103321         2.154379
 H         1.469671        -0.748519         2.133179
 H         4.096435        -0.688766         1.907390
 H         2.642624         2.676822         0.664213
 H         4.005081         2.377912        -0.644888
 H         2.346544         0.972553        -1.656362
 H         4.019424        -0.977405        -0.829747
