19
Iteration:  1311
 C        -0.102928         0.221141        -0.023573
 C         1.363712         0.014396         0.172249
 C         1.950642        -0.026015         1.657993
 C         3.452358        -0.106593         1.205885
 O         4.076511         1.266956         1.294195
 C         3.426019         1.924503         0.083864
 C         2.574232         0.766892        -0.585134
 C         3.275850        -0.536879        -0.292447
 O         1.984183        -1.281068        -0.337958
 H        -0.454509         1.188893         0.369809
 H        -0.386816         0.055313        -1.041848
 H        -0.590425        -0.467227         0.640227
 H         1.767562         0.973087         2.293778
 H         1.592809        -0.906766         2.187174
 H         4.090354        -0.795208         1.812741
 H         2.747666         2.782579         0.420010
 H         4.198856         2.462267        -0.464422
 H         2.324118         0.937544        -1.665054
 H         4.167586        -1.032576        -0.870955
