19
Iteration:  3216
 C        -0.041990         0.349812        -0.064644
 C         1.434396         0.044895         0.157118
 C         1.884616         0.046451         1.591655
 C         3.494128        -0.073112         1.256183
 O         4.040778         1.247195         1.106720
 C         3.214372         1.910299         0.066967
 C         2.658924         0.648457        -0.555522
 C         3.314114        -0.669739        -0.134762
 O         2.026303        -1.285040        -0.245343
 H        -0.580020        -0.166780         0.729396
 H        -0.279448         1.443366         0.299045
 H        -0.467430         0.281440        -1.092544
 H         1.721484         0.808902         2.424994
 H         1.627852        -0.879550         2.000468
 H         4.196647        -0.552209         1.935121
 H         2.413057         2.591756         0.494955
 H         3.957838         2.576728        -0.449705
 H         2.468011         0.672277        -1.647569
 H         4.075334        -1.196741        -0.676610
