19
Iteration:  1838charge 0 multiplicity 1
 C        -0.114073        -0.012154        -0.091134
 C         1.393025         0.080842         0.268730
 C         1.880437         0.132936         1.631394
 C         3.495069        -0.100866         1.193971
 O         4.153981         1.037388         1.183631
 C         3.425697         1.908849         0.159132
 C         2.505505         0.942973        -0.614087
 C         3.232362        -0.476958        -0.232932
 O         2.003777        -1.186375        -0.271267
 H        -0.854294         0.490640         0.601442
 H        -0.356932         0.363090        -1.159195
 H        -0.280283        -1.021911        -0.160580
 H         1.725287         1.103203         2.088607
 H         1.461151        -0.701480         2.351566
 H         4.037750        -0.870846         1.764440
 H         2.936974         2.831292         0.626487
 H         4.333816         2.334368        -0.558352
 H         2.226992         1.214309        -1.606935
 H         4.138144        -1.003624        -0.716373
