19
Iteration:  1032charge 0 multiplicity 1
 C        -0.062460        -0.031337        -0.061894
 C         1.347747         0.095615         0.182129
 C         1.920550         0.058340         1.639194
 C         3.398675        -0.152500         1.302684
 O         4.115928         1.083665         1.227533
 C         3.497097         1.966830         0.125491
 C         2.630519         0.950729        -0.571515
 C         3.168409        -0.485357        -0.240521
 O         1.961956        -1.156716        -0.396825
 H        -0.581771         0.697340        -0.676684
 H        -0.483124        -1.007869        -0.509085
 H        -0.543773         0.170920         0.893740
 H         1.622706         0.925236         2.232755
 H         1.542508        -1.003119         2.162718
 H         4.157853        -0.790848         1.903589
 H         2.895856         2.767393         0.623199
 H         4.272798         2.570610        -0.317655
 H         2.729533         0.968067        -1.632885
 H         4.040626        -0.890612        -0.873262
