19
Iteration:  2320
 C        -0.156269         0.092795        -0.062793
 C         1.398248         0.062834         0.254046
 C         2.004779         0.093968         1.665632
 C         3.411597        -0.109644         1.290107
 O         4.056897         1.144215         1.184330
 C         3.461262         1.859737         0.064399
 C         2.560791         0.803195        -0.551120
 C         3.300596        -0.492965        -0.239805
 O         1.966359        -1.188847        -0.358385
 H        -0.844625         0.647470         0.638072
 H        -0.253467         0.491506        -1.006109
 H        -0.411602        -0.979042        -0.082410
 H         1.795504         1.111234         2.038913
 H         1.484966        -0.497920         2.477080
 H         4.170414        -0.753284         1.786235
 H         2.780790         2.640874         0.622728
 H         4.286695         2.298406        -0.501828
 H         2.392066         0.902414        -1.711334
 H         4.160765        -0.804574        -0.914349
