19
Iteration:  2668charge 0 multiplicity 1
 C        -0.095456         0.049655        -0.102121
 C         1.382137         0.060542         0.151867
 C         1.960940         0.168308         1.644969
 C         3.407756        -0.071221         1.257549
 O         4.260491         1.136471         1.099761
 C         3.344955         1.880934         0.207195
 C         2.564681         0.799487        -0.581413
 C         3.215925        -0.498163        -0.131317
 O         1.924371        -1.211742        -0.327185
 H        -0.620806         0.788824         0.557922
 H        -0.320671         0.191932        -1.127720
 H        -0.165260        -1.016417         0.292846
 H         1.669371         1.110889         2.084267
 H         1.748165        -0.747751         2.275410
 H         3.968531        -0.759877         1.859103
 H         2.639055         2.535768         0.682735
 H         3.951299         2.407047        -0.558601
 H         2.367238         0.990456        -1.606321
 H         4.143358        -0.906257        -0.578456
