19
Iteration:  3175
 C         0.001077         0.166909        -0.163575
 C         1.465431         0.003012         0.269918
 C         1.956947         0.136317         1.685013
 C         3.464239        -0.180720         1.195631
 O         4.051571         1.188186         1.149404
 C         3.379129         1.955127         0.102984
 C         2.496135         0.811937        -0.519160
 C         3.270235        -0.577465        -0.240021
 O         1.973945        -1.254207        -0.214183
 H        -0.774696         0.301616         0.679124
 H        -0.257867         1.040886        -0.825236
 H        -0.314517        -0.636961        -0.804846
 H         1.524451         1.042542         2.103572
 H         1.523289        -0.715125         2.263323
 H         4.053031        -0.741250         1.944316
 H         2.848339         2.729874         0.631880
 H         4.027778         2.335354        -0.754364
 H         2.312132         1.054229        -1.662898
 H         3.961788        -1.076523        -0.893844
