19
Iteration:  1508charge 0 multiplicity 1
 C        -0.088093         0.067511        -0.175410
 C         1.387930         0.073209         0.182204
 C         1.932794         0.056843         1.606189
 C         3.500415        -0.117611         1.225502
 O         4.242944         1.120815         1.096488
 C         3.348002         1.929886         0.316429
 C         2.530426         0.898023        -0.606882
 C         3.196208        -0.502069        -0.180901
 O         1.940040        -1.234155        -0.258473
 H        -0.535210         1.011863        -0.529557
 H        -0.276953        -0.686884        -1.025885
 H        -0.716078        -0.169866         0.872557
 H         1.765324         1.112534         2.073695
 H         1.542159        -0.701674         2.293753
 H         4.207084        -0.750236         1.786050
 H         2.583599         2.509990         0.913977
 H         4.009776         2.529912        -0.230921
 H         2.515534         1.118442        -1.618932
 H         3.996169        -0.968800        -0.743789
