19
Iteration:  4926
 C        -0.064640        -0.048251        -0.112877
 C         1.447230         0.084634         0.239463
 C         1.909419         0.340900         1.659621
 C         3.416716        -0.079372         1.273681
 O         4.291724         1.218823         0.965350
 C         3.435148         1.860815        -0.001132
 C         2.530309         0.780654        -0.600404
 C         3.189284        -0.601026        -0.175550
 O         1.855426        -1.264552        -0.023408
 H        -0.336098        -0.632914        -0.932619
 H        -0.596188        -0.406382         0.688771
 H        -0.488157         0.988101        -0.280359
 H         1.772858         1.425352         1.961376
 H         1.386977        -0.317761         2.271924
 H         4.053451        -0.683406         1.977484
 H         2.779599         2.634078         0.381659
 H         4.150489         2.151835        -0.805013
 H         2.233648         0.682949        -1.652686
 H         4.038885        -1.106195        -0.464362
