19
Iteration:   204charge 0 multiplicity 1
 C        -0.114871         0.021285        -0.110964
 C         1.396767         0.000921         0.172427
 C         2.028919        -0.422679         1.511028
 C         3.500043        -0.392058         1.034598
 O         4.153076         0.886718         1.420786
 C         3.271717         1.920941         0.813390
 C         2.498659         1.178801        -0.237563
 C         3.242685        -0.080325        -0.563727
 O         2.074408        -0.832050        -0.808963
 H        -0.743165        -0.210926         0.874646
 H        -0.519484         0.934838        -0.587443
 H        -0.471916        -0.746657        -0.729073
 H         1.747845         0.318974         2.394510
 H         1.574000        -1.357538         1.788130
 H         4.270546        -1.113384         1.167795
 H         2.537085         2.474868         1.472295
 H         3.908496         2.632272         0.423082
 H         1.938352         1.814887        -1.091056
 H         3.949813        -0.277037        -1.335032
