19
Iteration:  3853
 C         0.031831         0.395267        -0.082778
 C         1.425981         0.018760         0.171267
 C         1.944594        -0.090304         1.648890
 C         3.490169        -0.151883         1.226835
 O         4.018890         1.201450         1.101733
 C         3.181391         1.989300         0.199543
 C         2.553406         0.781720        -0.555536
 C         3.301165        -0.592593        -0.199602
 O         2.063046        -1.309166        -0.323429
 H        -0.092894         1.478393         0.058949
 H        -0.623911         0.056371        -0.967785
 H        -0.627554         0.112492         0.799732
 H         1.873565         0.694941         2.325804
 H         1.645898        -1.056639         2.181853
 H         4.178366        -0.678106         1.889012
 H         2.470200         2.612779         0.805652
 H         3.907691         2.563444        -0.366164
 H         2.456473         0.787615        -1.645463
 H         4.067407        -0.993660        -0.837203
