19
Iteration:   382
 C        -0.067731         0.082495        -0.120953
 C         1.404923         0.047398         0.198199
 C         1.971060        -0.298634         1.604605
 C         3.478133        -0.249022         1.074343
 O         4.201627         0.910720         1.350805
 C         3.258202         1.890825         0.663842
 C         2.443780         1.100245        -0.368233
 C         3.240663        -0.191329        -0.491204
 O         2.041255        -0.992310        -0.715466
 H        -0.508336         0.839722         0.481208
 H        -0.205866         0.420916        -1.154453
 H        -0.511084        -0.945143         0.015303
 H         1.946245         0.508702         2.391843
 H         1.591879        -1.296192         2.021832
 H         4.210898        -0.964523         1.506605
 H         2.457153         2.163254         1.450706
 H         3.800539         2.747054         0.335839
 H         2.097551         1.631110        -1.241790
 H         4.198874        -0.319832        -1.104351
