19
Iteration:   545charge 0 multiplicity 1
 C        -0.073855         0.088652        -0.093147
 C         1.360805         0.078639         0.156927
 C         1.959584        -0.228751         1.554545
 C         3.500810        -0.257999         1.106187
 O         4.177235         0.989750         1.305977
 C         3.260102         1.956893         0.542626
 C         2.517364         1.062267        -0.361575
 C         3.236305        -0.342171        -0.419345
 O         2.054682        -1.045805        -0.593079
 H        -0.412336         0.779577        -0.827030
 H        -0.339367        -0.932012        -0.437764
 H        -0.793565         0.255285         0.798398
 H         1.904340         0.653241         2.200235
 H         1.605739        -0.990125         2.078483
 H         3.993200        -0.991729         1.722225
 H         2.652802         2.519641         1.284943
 H         3.956420         2.654977         0.124149
 H         2.285613         1.320705        -1.399444
 H         4.016738        -0.598494        -1.186276
