19
Iteration:   320
 C        -0.017791         0.195618         0.068891
 C         1.453792         0.078518         0.144556
 C         2.040123        -0.522065         1.474060
 C         3.528222        -0.317651         1.072014
 O         3.963885         1.007348         1.416381
 C         3.211451         1.954223         0.674189
 C         2.458240         1.105187        -0.338640
 C         3.345071        -0.289765        -0.480771
 O         2.048045        -0.934109        -0.810902
 H        -0.298049         0.817653        -0.761751
 H        -0.468226        -0.792316        -0.105242
 H        -0.550100         0.702538         0.961802
 H         1.938339         0.083096         2.344491
 H         1.585627        -1.540677         1.698146
 H         4.199203        -1.066282         1.446105
 H         2.614823         2.590867         1.269064
 H         3.943967         2.668381         0.112624
 H         2.177882         1.527019        -1.235357
 H         4.143756        -0.542831        -1.193043
