19
Iteration:  3997charge 0 multiplicity 1
 C        -0.035811         0.271459         0.028751
 C         1.371651         0.005732         0.123265
 C         2.043064        -0.010790         1.574265
 C         3.482044        -0.112575         1.240148
 O         4.064923         1.151350         1.135221
 C         3.213400         1.935189         0.229288
 C         2.646624         0.801353        -0.610338
 C         3.284223        -0.560137        -0.210587
 O         1.969127        -1.196648        -0.318445
 H        -0.141678         1.335646         0.319013
 H        -0.271596         0.092352        -1.105293
 H        -0.692328        -0.399193         0.590451
 H         1.599006         0.597647         2.243775
 H         1.805496        -1.026011         1.918156
 H         4.064901        -0.739897         1.926327
 H         2.369185         2.459512         0.726923
 H         3.849257         2.736700        -0.151522
 H         2.357908         0.811124        -1.708638
 H         4.161757        -1.042238        -0.722367
