19
Iteration:  3071charge 0 multiplicity 1
 C         0.026842         0.382599        -0.128078
 C         1.464498         0.006486         0.221605
 C         1.973145        -0.072331         1.772338
 C         3.469912        -0.069547         1.227064
 O         4.061797         1.262934         1.175099
 C         3.219881         1.943619         0.193827
 C         2.547107         0.715843        -0.606295
 C         3.259045        -0.544759        -0.255307
 O         1.971404        -1.343155        -0.333094
 H        -0.264768         1.283065        -0.651877
 H        -0.203639        -0.363545        -0.907696
 H        -0.722119         0.273237         0.710426
 H         1.760711         0.597947         2.567200
 H         1.858956        -1.137664         1.920072
 H         4.239337        -0.723662         1.766062
 H         2.641877         2.802931         0.602214
 H         3.858639         2.476878        -0.497865
 H         2.395549         0.866274        -1.631455
 H         4.084265        -1.072970        -0.840857
