19
Iteration:  3868
 C        -0.035094         0.428459         0.017970
 C         1.435393        -0.060051         0.105473
 C         2.020834        -0.019458         1.629367
 C         3.476177        -0.114965         1.291682
 O         4.052079         1.229920         1.167002
 C         3.157916         1.852559         0.215601
 C         2.570673         0.768693        -0.632755
 C         3.300116        -0.513380        -0.277093
 O         2.052413        -1.371820        -0.315982
 H         0.092898         1.457035         0.338853
 H        -0.179113         0.510447        -1.041350
 H        -0.709438        -0.153114         0.572400
 H         1.655615         0.995995         2.059041
 H         1.480176        -0.858706         1.991523
 H         4.025147        -0.826932         1.911690
 H         2.383268         2.403416         0.761022
 H         3.742235         2.559162        -0.425115
 H         2.229765         1.070516        -1.653705
 H         4.206728        -0.937352        -0.728610
