19
Iteration:  1776charge 0 multiplicity 1
 C         0.064166         0.453412        -0.013697
 C         1.448750        -0.053232         0.199064
 C         2.012369        -0.073565         1.593066
 C         3.498325        -0.197665         1.292254
 O         3.913165         1.219543         1.186171
 C         3.158428         1.901722         0.131037
 C         2.574509         0.786142        -0.591095
 C         3.313830        -0.536630        -0.341721
 O         2.051565        -1.296306        -0.261437
 H         0.038623         1.583365         0.234382
 H        -0.272746         0.237498        -1.031627
 H        -0.755432        -0.090790         0.639344
 H         1.732823         0.769719         2.231416
 H         1.681732        -0.964894         2.142369
 H         4.120508        -0.711339         1.994099
 H         2.508449         2.635718         0.562248
 H         3.898338         2.266542        -0.446449
 H         2.363705         1.019987        -1.745654
 H         4.109521        -0.824394        -0.995271
