19
Iteration:  2753
 C         0.016056         0.385794        -0.044570
 C         1.398671        -0.000473         0.236384
 C         1.977070        -0.134496         1.697270
 C         3.515135        -0.091790         1.218365
 O         3.952688         1.252381         1.174014
 C         3.257842         1.934351         0.053530
 C         2.597892         0.733983        -0.684994
 C         3.289753        -0.571266        -0.170159
 O         2.008476        -1.278146        -0.269410
 H        -0.002426         1.521180         0.086682
 H        -0.174649         0.072106        -1.007113
 H        -0.808210        -0.008238         0.493084
 H         1.686615         0.425589         2.560439
 H         1.798417        -1.252596         1.995212
 H         4.205900        -0.535219         1.897493
 H         2.534954         2.735470         0.438848
 H         4.086349         2.494576        -0.469573
 H         2.235386         0.785477        -1.767927
 H         4.133793        -0.839466        -0.762661
