19
Iteration:   993charge 0 multiplicity 1
 C        -0.114824         0.181369        -0.046552
 C         1.422760         0.037601         0.124336
 C         1.963797        -0.003341         1.640731
 C         3.478814        -0.195478         1.213065
 O         4.043819         1.125554         1.246704
 C         3.329885         1.931251         0.203252
 C         2.551985         0.891565        -0.546628
 C         3.270130        -0.472161        -0.220803
 O         2.046018        -1.223267        -0.397198
 H        -0.443288         0.479699        -1.064297
 H        -0.485430        -0.811163         0.024316
 H        -0.406256         1.014175         0.750919
 H         1.959196         0.959450         2.241249
 H         1.528409        -0.786303         2.177669
 H         3.935633        -0.881842         1.980223
 H         2.757724         2.762512         0.642344
 H         4.122184         2.220308        -0.547399
 H         2.464086         0.961848        -1.679823
 H         4.007298        -0.744554        -0.919863
