19
Iteration:  4867charge 0 multiplicity 1
 C         0.024552         0.432881         0.069711
 C         1.477543         0.072204         0.204145
 C         1.992435         0.060334         1.666101
 C         3.424971         0.046434         1.293192
 O         3.949779         1.372448         0.989035
 C         3.332851         1.772219        -0.157828
 C         2.585475         0.601044        -0.704553
 C         3.301605        -0.718970        -0.044809
 O         1.952873        -1.370803        -0.107111
 H        -0.150654         0.918227        -0.957586
 H        -0.554637        -0.556099         0.099224
 H        -0.381430         1.039829         0.842054
 H         1.514160         0.931888         2.131591
 H         1.458504        -0.843956         2.163334
 H         4.064523        -0.311365         2.197370
 H         2.728652         2.693429        -0.058330
 H         4.107560         2.112966        -0.818571
 H         2.572386         0.281270        -1.757273
 H         4.228995        -1.422080        -0.257222
