19
Iteration:   777
 C        -0.042928         0.474652        -0.001024
 C         1.424992         0.020308         0.106658
 C         2.083514        -0.221806         1.649238
 C         3.501600        -0.242965         1.252039
 O         3.963759         1.179103         1.304487
 C         3.087780         1.944650         0.341467
 C         2.581766         0.863337        -0.515612
 C         3.293766        -0.467065        -0.375015
 O         2.088327        -1.298976        -0.563509
 H         0.032891         1.299797        -0.752157
 H        -0.522686        -0.450045        -0.344037
 H        -0.443685         0.656007         1.058846
 H         1.860524         0.419236         2.482850
 H         1.667342        -1.218818         1.869880
 H         4.321707        -0.813576         1.820131
 H         2.308339         2.597883         0.749497
 H         3.820504         2.616960        -0.091803
 H         2.525689         1.260876        -1.595057
 H         4.135188        -0.846077        -0.946722
