19
Iteration:  3192charge 0 multiplicity 1
 C        -0.023926         0.260089        -0.128412
 C         1.399872         0.027617         0.185521
 C         1.998543         0.025989         1.662634
 C         3.455456        -0.045357         1.311999
 O         4.099977         1.215268         1.160532
 C         3.280872         1.843187         0.112077
 C         2.548962         0.720818        -0.648830
 C         3.226702        -0.517284        -0.208707
 O         1.987690        -1.312666        -0.235246
 H        -0.646576         0.201917         0.726343
 H        -0.158601         1.323746        -0.478700
 H        -0.399446        -0.372763        -0.982119
 H         2.011101         1.061215         2.166915
 H         1.598119        -0.721238         2.345921
 H         4.173226        -0.647037         1.838908
 H         2.571805         2.648659         0.486718
 H         4.033896         2.386676        -0.412635
 H         2.363680         0.920007        -1.645983
 H         4.118215        -0.967785        -0.676293
