19
Iteration:  3736
 C        -0.021952         0.286446        -0.123458
 C         1.458038         0.054866         0.173510
 C         2.054155        -0.084170         1.661540
 C         3.518643        -0.127065         1.202046
 O         4.042439         1.147365         1.232835
 C         3.211002         1.888450         0.285077
 C         2.542805         0.816962        -0.634825
 C         3.277642        -0.480670        -0.295582
 O         1.982974        -1.238841        -0.331118
 H        -0.349718        -0.016110        -1.061984
 H        -0.580482        -0.230929         0.674436
 H        -0.261691         1.296295        -0.027015
 H         1.887034         0.802993         2.332744
 H         1.589099        -0.906675         2.213695
 H         4.098701        -0.828727         1.707078
 H         2.392544         2.404232         0.758975
 H         3.870939         2.545551        -0.304490
 H         2.150244         1.253647        -1.571200
 H         4.023615        -1.054656        -0.764864
