19
Iteration:  1825charge 0 multiplicity 1
 C        -0.084287         0.030766        -0.123223
 C         1.359864         0.134291         0.130986
 C         1.938740         0.066390         1.661982
 C         3.407432        -0.157703         1.251605
 O         4.224414         1.172860         1.121122
 C         3.399939         1.920246         0.188243
 C         2.550566         0.843346        -0.521043
 C         3.205572        -0.482727        -0.221559
 O         1.959342        -1.221575        -0.279526
 H        -0.589679         0.543037         0.660583
 H        -0.419700         0.422247        -1.136674
 H        -0.377094        -0.996600        -0.006149
 H         1.923712         1.027366         2.311522
 H         1.396579        -0.763745         2.214254
 H         4.080667        -0.861038         1.825419
 H         2.823686         2.622236         0.835195
 H         4.069722         2.500870        -0.605741
 H         2.413456         0.948685        -1.531975
 H         4.113567        -0.853688        -0.830668
