19
Iteration:    41
 C        -0.112477        -0.064756        -0.118078
 C         1.401304         0.084402         0.126899
 C         2.026680        -0.488104         1.351762
 C         3.557172        -0.424942         0.955539
 O         4.114030         0.798736         1.482414
 C         3.301341         1.852916         0.965202
 C         2.390977         1.233228        -0.106533
 C         3.285734         0.004811        -0.520365
 O         2.015048        -0.681221        -0.903266
 H        -0.328478        -0.993139         0.644031
 H        -0.649170         0.799737         0.274636
 H        -0.214835        -0.367388        -1.142743
 H         1.615727         0.135556         2.263570
 H         1.734601        -1.523822         1.500230
 H         4.279922        -1.219221         1.152127
 H         2.803871         2.511852         1.705777
 H         3.964350         2.683261         0.342528
 H         2.141342         1.913585        -1.015068
 H         4.086771        -0.118238        -1.248474
