19
Iteration:  3541
 C        -0.048792         0.368956         0.062541
 C         1.439921         0.051619         0.102201
 C         1.944870        -0.127973         1.563512
 C         3.413581        -0.206687         1.312961
 O         4.026536         1.243903         1.199348
 C         3.244682         1.877617         0.068303
 C         2.601800         0.802654        -0.569271
 C         3.355582        -0.551953        -0.164631
 O         2.055908        -1.233631        -0.357292
 H        -0.150859         1.312983        -0.501836
 H        -0.792259        -0.333427        -0.537921
 H        -0.496971         0.296359         1.088776
 H         1.782992         0.741018         2.285715
 H         1.496360        -1.039185         1.869904
 H         4.072585        -0.588424         2.123419
 H         2.508051         2.601406         0.502903
 H         3.884421         2.468098        -0.599280
 H         2.524009         0.756674        -1.717121
 H         4.143533        -0.889749        -0.888863
