19
Iteration:  3788
 C        -0.134569         0.053125        -0.012066
 C         1.383560         0.053441         0.170269
 C         1.904505         0.056376         1.663244
 C         3.420139        -0.143814         1.247306
 O         4.126130         1.105646         1.251313
 C         3.469110         1.874477         0.162379
 C         2.531165         0.891236        -0.582065
 C         3.246783        -0.396638        -0.290818
 O         2.060808        -1.195398        -0.401795
 H        -0.403644         0.789939        -0.767080
 H        -0.523549        -0.969365        -0.261288
 H        -0.610192         0.378745         0.942626
 H         1.630824         0.852134         2.338537
 H         1.334351        -0.797871         2.195691
 H         3.856101        -0.833392         1.980541
 H         2.943030         2.760722         0.561746
 H         4.191371         2.235057        -0.598913
 H         2.430260         1.098260        -1.661158
 H         4.025042        -0.673791        -1.016495
