19
Iteration:  3757charge 0 multiplicity 1
 C        -0.085644         0.135280         0.005858
 C         1.442783         0.072501         0.190976
 C         1.954001         0.005015         1.578348
 C         3.470113        -0.194642         1.236138
 O         4.111004         1.179960         1.184924
 C         3.325408         1.949042         0.269010
 C         2.625773         0.834191        -0.556123
 C         3.273615        -0.558089        -0.234147
 O         1.942994        -1.172733        -0.433196
 H        -0.247467         0.262811        -1.016383
 H        -0.618292        -0.789148         0.272248
 H        -0.598841         0.924140         0.466479
 H         1.770800         0.919912         2.193677
 H         1.438439        -0.953280         1.962263
 H         4.002130        -0.563405         2.058771
 H         2.538865         2.498526         0.763830
 H         3.904060         2.593970        -0.415312
 H         2.623411         1.073435        -1.636707
 H         3.961989        -0.939187        -0.953054
