19
Iteration:   934charge 0 multiplicity 1
 C        -0.020631         0.423285        -0.132841
 C         1.387794        -0.037578         0.204476
 C         2.056925        -0.185379         1.674407
 C         3.543892        -0.145358         1.228501
 O         3.968353         1.172327         1.218487
 C         3.173659         1.875136         0.252077
 C         2.614708         0.823873        -0.616331
 C         3.316225        -0.499729        -0.245275
 O         2.034029        -1.213781        -0.382897
 H        -0.644746        -0.288190        -0.761945
 H        -0.573202         0.810310         0.815341
 H        -0.032788         1.365320        -0.745003
 H         1.786457         0.572280         2.316349
 H         1.730859        -1.139262         2.105707
 H         4.247867        -0.682068         1.871815
 H         2.342427         2.313373         0.804906
 H         3.703426         2.736825        -0.074122
 H         2.172780         0.981390        -1.548486
 H         4.068635        -0.999994        -0.929885
