19
Iteration:   849charge 0 multiplicity 1
 C        -0.135593         0.021120        -0.088786
 C         1.439120         0.037266         0.226249
 C         1.977448        -0.066080         1.602546
 C         3.416620        -0.232712         1.195241
 O         4.100055         1.087882         1.277849
 C         3.380884         1.926597         0.308070
 C         2.568566         0.960782        -0.510658
 C         3.256061        -0.378433        -0.301924
 O         1.982184        -1.096670        -0.442265
 H        -0.690899         0.433030         0.691406
 H        -0.171235         0.770402        -0.842752
 H        -0.379604        -0.950751        -0.572690
 H         1.625987         0.854367         2.204214
 H         1.626442        -0.970114         1.999865
 H         4.086650        -0.874676         1.843521
 H         3.004435         2.865145         0.831229
 H         4.125354         2.274068        -0.489664
 H         2.339818         1.250314        -1.494225
 H         3.986542        -0.670596        -1.099301
