19
Iteration:  2123
 C         0.060084         0.321013        -0.008791
 C         1.439810        -0.009211         0.176767
 C         1.973944        -0.071453         1.613284
 C         3.475161        -0.067070         1.277723
 O         4.003437         1.264782         1.179476
 C         3.283751         1.896020         0.152159
 C         2.569411         0.765344        -0.580229
 C         3.295925        -0.579126        -0.206088
 O         1.940950        -1.270646        -0.390367
 H        -0.151402         1.522660         0.200955
 H        -0.288242         0.062595        -1.028038
 H        -0.578958        -0.282785         0.691788
 H         1.693214         0.707687         2.324653
 H         1.702503        -1.136368         2.058968
 H         3.912095        -0.642164         2.034075
 H         2.485961         2.578126         0.527262
 H         4.002802         2.384602        -0.515292
 H         2.563505         0.993536        -1.716601
 H         4.076791        -1.097946        -0.697978
