19
Iteration:   238
 C        -0.081046         0.174459         0.015753
 C         1.463981         0.068022         0.149773
 C         2.015252        -0.436970         1.448235
 C         3.550395        -0.357786         1.082296
 O         4.077825         0.972560         1.418133
 C         3.152652         1.927007         0.803076
 C         2.523592         1.089195        -0.301710
 C         3.242087        -0.193004        -0.589958
 O         2.092898        -0.932794        -0.843414
 H        -0.437911        -0.869776         0.362048
 H        -0.500763         0.951192         0.694590
 H        -0.309656         0.348517        -0.996283
 H         1.693933         0.131110         2.427966
 H         1.634347        -1.450881         1.461299
 H         4.143750        -1.223933         1.380630
 H         2.405637         2.280082         1.541531
 H         3.799616         2.715669         0.558587
 H         2.070364         1.742761        -1.123747
 H         4.080904        -0.442670        -1.200097
