19
Iteration:   243
 C        -0.039609         0.190822         0.018158
 C         1.456998         0.050478         0.142924
 C         1.990943        -0.483220         1.481300
 C         3.557169        -0.345537         1.067781
 O         4.053663         0.975633         1.422604
 C         3.152480         1.902651         0.767260
 C         2.529877         1.121434        -0.326871
 C         3.281562        -0.189087        -0.567946
 O         2.059442        -0.929061        -0.829209
 H        -0.445944        -0.744568         0.267361
 H        -0.355774         0.805699         0.887572
 H        -0.407914         0.595392        -1.031258
 H         1.710607         0.019471         2.349401
 H         1.652507        -1.565829         1.539742
 H         4.199406        -1.196561         1.389122
 H         2.358345         2.227887         1.457822
 H         3.723116         2.917402         0.465343
 H         2.088623         1.729862        -1.066489
 H         4.227027        -0.436082        -1.152326
