19
Iteration:  2153
 C        -0.126676         0.122096        -0.021798
 C         1.335331         0.071337         0.237760
 C         1.939405         0.051343         1.606701
 C         3.458501        -0.112596         1.159376
 O         4.057206         1.134565         1.257832
 C         3.431481         1.925782         0.137813
 C         2.577181         0.861718        -0.606944
 C         3.285512        -0.485747        -0.218537
 O         2.015707        -1.238025        -0.345922
 H        -0.473205         1.044351        -0.370511
 H        -0.306658        -0.671138        -0.797590
 H        -0.581510        -0.206200         0.833625
 H         1.874981         0.891440         2.204374
 H         1.552666        -0.759811         2.221541
 H         3.856198        -0.889779         1.805725
 H         2.882774         2.850797         0.494120
 H         4.252668         2.329968        -0.429589
 H         2.578286         0.901281        -1.736189
 H         4.093569        -0.977795        -0.740491
