19
Iteration:  2567
 C        -0.005834         0.388872         0.058185
 C         1.484544        -0.038945         0.177012
 C         1.919850        -0.051735         1.601384
 C         3.468211         0.022177         1.251826
 O         3.959524         1.240991         1.237574
 C         3.273967         1.833515         0.076142
 C         2.577869         0.739530        -0.635415
 C         3.317775        -0.581525        -0.309042
 O         2.034736        -1.297826        -0.294729
 H        -0.091162         1.520885         0.315710
 H        -0.398343        -0.068057        -0.853246
 H        -0.524629        -0.195514         0.788484
 H         1.742591         0.811406         2.228459
 H         1.476762        -1.050007         2.026608
 H         4.035414        -0.657382         1.902606
 H         2.702897         2.605898         0.414331
 H         4.065076         2.333310        -0.576472
 H         2.184542         1.086361        -1.676406
 H         4.168732        -1.159586        -0.690969
