19
Iteration:   566
 C        -0.082084         0.129073         0.006363
 C         1.434019         0.059305         0.164580
 C         1.991490        -0.247679         1.578236
 C         3.459910        -0.264931         1.179774
 O         4.027743         1.065268         1.367846
 C         3.306185         1.911826         0.471388
 C         2.607264         1.022690        -0.510263
 C         3.291041        -0.312623        -0.380668
 O         2.000261        -1.052333        -0.662914
 H        -0.451676         1.116213        -0.241640
 H        -0.506464        -0.613027        -0.703633
 H        -0.630180        -0.168582         0.991797
 H         1.763256         0.287392         2.529042
 H         1.656330        -1.227733         1.630608
 H         4.212188        -0.944456         1.534141
 H         2.632722         2.597352         1.028665
 H         4.038935         2.540680        -0.091016
 H         2.308489         1.443818        -1.507263
 H         4.142947        -0.742297        -0.962692
