19
Iteration:  3594charge 0 multiplicity 1
 C        -0.090037         0.240739        -0.199428
 C         1.434906         0.057029         0.198774
 C         1.993706        -0.068399         1.704451
 C         3.501026        -0.133818         1.175914
 O         4.115670         1.162976         1.191462
 C         3.270889         1.890027         0.185466
 C         2.557291         0.809274        -0.553841
 C         3.275803        -0.499416        -0.184005
 O         1.940331        -1.163252        -0.285025
 H        -0.191204         0.845308        -1.072207
 H        -0.277841        -0.862438        -0.493765
 H        -0.745620         0.534603         0.640714
 H         1.661855         0.752495         2.301272
 H         1.549119        -0.932674         2.130788
 H         4.419783        -0.625220         1.640751
 H         2.665295         2.553605         0.824101
 H         4.068098         2.455703        -0.370724
 H         2.252977         0.907637        -1.652908
 H         4.085176        -1.103450        -0.768877
