19
Iteration:  1852charge 0 multiplicity 1
 C        -0.106729        -0.029847        -0.081871
 C         1.349796        -0.004593         0.215945
 C         1.978766         0.156952         1.664019
 C         3.374165        -0.146734         1.280453
 O         4.125623         1.165073         1.214890
 C         3.495594         1.845878         0.149849
 C         2.572974         0.877017        -0.539555
 C         3.206606        -0.442435        -0.382828
 O         1.993918        -1.159610        -0.292094
 H        -0.743101         0.570265         0.670429
 H        -0.184632         0.424711        -1.038967
 H        -0.510053        -1.096262        -0.066345
 H         1.854137         1.115041         2.080932
 H         1.583550        -0.615625         2.306349
 H         3.889502        -0.797323         1.928953
 H         3.006419         2.766512         0.586906
 H         4.281870         2.197546        -0.579830
 H         2.261032         1.174810        -1.643542
 H         3.903175        -0.838094        -1.071380
