19
Iteration:  1309
 C        -0.096833         0.246543        -0.029544
 C         1.395045        -0.004753         0.168800
 C         1.955343        -0.030705         1.666442
 C         3.463214        -0.088360         1.214610
 O         4.061797         1.258164         1.298258
 C         3.419405         1.926375         0.081330
 C         2.567012         0.764891        -0.590969
 C         3.277825        -0.545496        -0.308832
 O         1.982108        -1.288231        -0.336791
 H        -0.441412         1.216771         0.328218
 H        -0.447509         0.032377        -0.979725
 H        -0.664951        -0.458328         0.669058
 H         1.754445         0.967872         2.304505
 H         1.599916        -0.935694         2.243385
 H         4.041611        -0.780384         1.775615
 H         2.754510         2.817729         0.397050
 H         4.193110         2.455906        -0.430005
 H         2.289246         0.983507        -1.679838
 H         4.154696        -0.980261        -0.827235
