19
Iteration:  2181
 C        -0.067903         0.025151        -0.158759
 C         1.355352         0.039150         0.229253
 C         1.891682         0.090130         1.651426
 C         3.529540        -0.064704         1.273140
 O         4.207830         1.108577         1.233445
 C         3.406518         1.898422         0.204042
 C         2.479933         0.851918        -0.572508
 C         3.215095        -0.482272        -0.337938
 O         1.964530        -1.171475        -0.323370
 H        -0.446480         1.032929        -0.590153
 H        -0.313608        -0.864156        -0.791016
 H        -0.491434        -0.136188         0.958518
 H         1.766540         1.154669         2.227529
 H         1.326523        -0.635113         2.288031
 H         3.976590        -0.872330         1.942505
 H         2.946276         2.795692         0.570607
 H         4.271785         2.294696        -0.430409
 H         2.257982         1.075045        -1.580814
 H         3.935660        -1.068698        -1.012547
