19
Iteration:  1871
 C        -0.088842         0.096996        -0.037964
 C         1.376669         0.068648         0.186226
 C         1.957705         0.043704         1.647442
 C         3.532324        -0.090203         1.224547
 O         4.095616         1.200960         1.271927
 C         3.437380         1.917963         0.118793
 C         2.532795         0.854901        -0.571006
 C         3.240128        -0.520777        -0.195250
 O         1.937930        -1.258125        -0.418269
 H        -0.717248         0.724018         0.670489
 H        -0.449558         0.292800        -1.097975
 H        -0.386089        -0.859151         0.208819
 H         1.715299         1.002556         2.106414
 H         1.441877        -0.784117         2.327809
 H         4.171093        -0.748518         1.795769
 H         2.882629         2.835602         0.469293
 H         4.342046         2.087032        -0.642254
 H         2.243792         1.027262        -1.596657
 H         4.069067        -1.052059        -0.766447
