19
Iteration:   269charge 0 multiplicity 1
 C        -0.038724         0.357003         0.107989
 C         1.435610         0.015921         0.161790
 C         2.136885        -0.552675         1.407723
 C         3.587677        -0.365995         1.071115
 O         3.903993         0.984955         1.460900
 C         3.114505         1.971764         0.703185
 C         2.494921         1.048450        -0.331197
 C         3.291247        -0.239225        -0.500774
 O         2.118617        -0.965954        -0.854085
 H        -0.665114        -0.357283        -0.542448
 H        -0.537221         0.363715         1.077481
 H        -0.137996         1.282640        -0.387794
 H         1.836491        -0.129884         2.401819
 H         1.859473        -1.565479         1.412405
 H         4.294107        -1.105719         1.414259
 H         2.375676         2.632605         1.342809
 H         3.770043         2.707638         0.273583
 H         2.139697         1.475378        -1.437329
 H         4.146661        -0.366764        -1.105086
