19
Iteration:   881charge 0 multiplicity 1
 C        -0.209084         0.029959        -0.015571
 C         1.362359         0.120006         0.191204
 C         1.937008        -0.061105         1.662694
 C         3.409076        -0.183480         1.222700
 O         4.097036         1.137635         1.326762
 C         3.430147         1.899263         0.245495
 C         2.675843         0.918363        -0.574023
 C         3.280318        -0.411980        -0.329975
 O         2.036410        -1.131158        -0.518626
 H        -0.635896        -0.683118         0.755202
 H        -0.594854         1.097194         0.052603
 H        -0.506724        -0.407345        -1.036779
 H         1.572368         0.748575         2.290926
 H         1.495134        -0.941213         2.000981
 H         4.023279        -0.869661         1.877438
 H         2.763142         2.671459         0.724726
 H         4.256482         2.300176        -0.359757
 H         2.401917         1.142702        -1.569926
 H         4.173612        -0.826160        -0.891910
