19
Iteration:  2919charge 0 multiplicity 1
 C         0.024799         0.412517        -0.059133
 C         1.494762        -0.003355         0.196391
 C         1.988449        -0.016832         1.652809
 C         3.481638        -0.156899         1.287454
 O         4.011324         1.261632         1.154445
 C         3.184574         1.876135         0.102466
 C         2.563866         0.690072        -0.648346
 C         3.329974        -0.560006        -0.236264
 O         1.962526        -1.265922        -0.291608
 H        -0.260553         1.309123         0.525670
 H        -0.248905         0.404810        -1.128536
 H        -0.578439        -0.465991         0.362171
 H         1.728332         0.891443         2.229150
 H         1.632206        -0.936954         2.215474
 H         4.137996        -0.686396         2.076682
 H         2.321594         2.289378         0.580493
 H         3.866025         2.537152        -0.466152
 H         2.358072         0.872533        -1.641466
 H         4.352029        -0.984657        -0.501525
