19
Iteration:  4717
 C        -0.004245         0.293727        -0.013153
 C         1.394496         0.064191         0.234729
 C         1.933473         0.039125         1.641964
 C         3.489138         0.031137         1.347691
 O         4.063559         1.315631         1.075171
 C         3.359195         1.806714        -0.164921
 C         2.570006         0.644999        -0.644432
 C         3.291688        -0.643918        -0.112185
 O         1.904410        -1.279638        -0.152076
 H        -0.463952        -0.686683        -0.396946
 H        -0.490881         0.570833         0.883953
 H        -0.098130         1.056369        -0.790844
 H         1.629075         0.901157         2.247371
 H         1.701403        -0.863825         2.204301
 H         4.306312        -0.626561         1.941774
 H         2.679326         2.444329         0.412026
 H         4.014723         2.373859        -0.907249
 H         2.322937         0.709913        -1.734510
 H         4.209732        -1.220975        -0.496671
