19
Iteration:  4944charge 0 multiplicity 1
 C        -0.131105         0.059114        -0.056870
 C         1.294692         0.086103         0.203880
 C         1.969379         0.313518         1.645654
 C         3.481826         0.074672         1.313936
 O         4.248485         1.125955         0.952280
 C         3.387047         1.873455        -0.005163
 C         2.608410         0.674540        -0.665068
 C         3.180929        -0.593624        -0.091448
 O         1.960505        -1.295695        -0.099938
 H        -0.294250        -0.876082        -0.740886
 H        -0.743298        -0.106740         0.874234
 H        -0.535999         0.946229        -0.535888
 H         1.694172         1.330312         2.000495
 H         1.611831        -0.474186         2.380409
 H         3.916647        -0.575902         2.180243
 H         2.759112         2.548220         0.629854
 H         4.019890         2.528342        -0.586853
 H         2.484024         0.849148        -1.729345
 H         3.963148        -1.245761        -0.644057
