19
Iteration:   526charge 0 multiplicity 1
 C        -0.102587         0.080978        -0.168152
 C         1.386038         0.016660         0.142579
 C         2.057266        -0.162293         1.651018
 C         3.533752        -0.250726         1.125783
 O         4.163012         1.003910         1.264497
 C         3.309510         1.892539         0.651291
 C         2.418910         1.032847        -0.416309
 C         3.252456        -0.269153        -0.433741
 O         1.981671        -1.079425        -0.594786
 H        -0.190886         0.342171        -1.201271
 H        -0.563391        -0.861937        -0.090434
 H        -0.531410         1.008921         0.304956
 H         1.672994         0.633994         2.243577
 H         1.692939        -1.126542         2.120143
 H         4.098624        -1.137499         1.423753
 H         2.709003         2.494173         1.400843
 H         3.865438         2.667768         0.207129
 H         2.169591         1.566882        -1.235812
 H         4.208515        -0.409228        -0.918885
