19
Iteration:  1141charge 0 multiplicity 1
 C        -0.042866         0.269180        -0.038860
 C         1.392279         0.030807         0.181398
 C         1.932887         0.011587         1.583292
 C         3.467838        -0.145066         1.289342
 O         4.031300         1.233769         1.217249
 C         3.353217         1.885413         0.137608
 C         2.542920         0.780135        -0.544541
 C         3.246860        -0.581238        -0.282377
 O         2.064047        -1.262231        -0.321294
 H        -0.186921         0.838893         0.854503
 H        -0.243510         0.772234        -1.026592
 H        -0.556551        -0.635187        -0.051942
 H         1.706087         0.960251         2.073513
 H         1.310630        -0.787455         2.225290
 H         4.279708        -0.633574         1.951284
 H         2.659153         2.794425         0.343974
 H         4.172581         2.289913        -0.528916
 H         2.220622         0.797958        -1.555599
 H         4.102444        -0.892803        -0.922497
