19
Iteration:  4380
 C         0.034266         0.323337        -0.097614
 C         1.425205         0.075250         0.266670
 C         1.980818        -0.042639         1.683251
 C         3.543355        -0.116384         1.257583
 O         4.014596         1.300597         1.105455
 C         3.294525         1.880984        -0.026721
 C         2.541637         0.752837        -0.550474
 C         3.268185        -0.622140        -0.179877
 O         1.942948        -1.277721        -0.231056
 H        -0.147065         0.092566        -1.183592
 H        -0.531477        -0.337780         0.498544
 H        -0.321070         1.288071         0.140669
 H         1.638457         0.640662         2.565642
 H         1.799983        -1.144063         2.042176
 H         4.285532        -0.650099         1.911586
 H         2.498429         2.632833         0.294471
 H         3.948211         2.404774        -0.726087
 H         2.176123         0.945839        -1.499870
 H         3.982584        -1.188141        -0.659533
