19
Iteration:  1668
 C        -0.065641         0.050001        -0.150833
 C         1.386207         0.062864         0.187608
 C         1.973612         0.133042         1.682040
 C         3.445926        -0.077077         1.309052
 O         4.261731         1.082200         1.120011
 C         3.289316         1.901803         0.228367
 C         2.564582         0.866153        -0.546848
 C         3.224495        -0.493782        -0.264747
 O         1.920528        -1.244198        -0.327706
 H        -0.613128         0.929559         0.207053
 H        -0.100716         0.051200        -1.184943
 H        -0.562497        -0.851010         0.292551
 H         1.870664         1.142273         2.235191
 H         1.458685        -0.683402         2.200078
 H         3.988818        -0.755767         1.971933
 H         2.607171         2.540387         0.875690
 H         3.916391         2.664117        -0.390076
 H         2.343112         1.043310        -1.686840
 H         4.065527        -0.746459        -0.927710
