19
Iteration:  2483charge 0 multiplicity 1
 C        -0.139989         0.122629        -0.119301
 C         1.368087         0.023357         0.200040
 C         2.002695         0.166468         1.579906
 C         3.445006        -0.123408         1.227520
 O         4.139152         1.175336         1.152104
 C         3.376570         1.832023         0.182819
 C         2.541406         0.784278        -0.534393
 C         3.240365        -0.527864        -0.221835
 O         2.034971        -1.190817        -0.255226
 H        -0.657398         0.870899         0.549660
 H        -0.421323         0.399650        -1.096440
 H        -0.609398        -0.846928         0.148616
 H         1.998098         1.027727         2.181819
 H         1.557977        -0.664555         2.193481
 H         4.030956        -0.758057         1.925108
 H         2.675148         2.606649         0.627871
 H         4.022870         2.328672        -0.581219
 H         2.274433         1.024788        -1.616808
 H         4.045421        -1.007971        -0.851358
