19
Iteration:  3438
 C        -0.084620         0.183705        -0.031294
 C         1.399786         0.142643         0.091995
 C         1.995692         0.109807         1.642656
 C         3.393415        -0.115754         1.337525
 O         4.135503         1.202453         1.169150
 C         3.309774         1.905353         0.139623
 C         2.642214         0.766354        -0.591126
 C         3.256650        -0.643588        -0.185848
 O         1.994811        -1.249815        -0.364639
 H        -0.574539         0.284560         0.953317
 H        -0.444293         0.898846        -0.679480
 H        -0.520055        -0.730933        -0.361978
 H         1.745810         0.920051         2.197532
 H         1.511591        -0.761525         2.098329
 H         4.007518        -0.772531         1.882173
 H         2.580002         2.588599         0.571709
 H         3.958286         2.474006        -0.573329
 H         2.351728         0.981267        -1.601301
 H         4.057490        -1.241901        -0.597946
