19
Iteration:  1207
 C        -0.083134         0.072998        -0.109080
 C         1.379420         0.049590         0.193037
 C         1.978300         0.142017         1.646451
 C         3.413263        -0.097240         1.233561
 O         4.135376         1.116625         1.164346
 C         3.397078         1.894319         0.182266
 C         2.528099         0.805758        -0.564660
 C         3.211916        -0.469766        -0.228619
 O         2.032013        -1.210384        -0.323578
 H        -0.371384         0.968753         0.428387
 H        -0.514094         0.155656        -1.177644
 H        -0.694782        -0.730977         0.265274
 H         1.796250         1.050657         2.225258
 H         1.681211        -0.742664         2.355041
 H         3.898040        -0.907890         1.887016
 H         2.815826         2.680307         0.784797
 H         4.166014         2.320676        -0.508176
 H         2.347996         0.942224        -1.595448
 H         4.008204        -0.945554        -0.748335
