19
Iteration:  1028
 C        -0.078106        -0.034489        -0.060121
 C         1.393800         0.059548         0.162563
 C         1.880587         0.049155         1.670067
 C         3.409277        -0.129669         1.279320
 O         4.144693         1.106692         1.247248
 C         3.490072         1.941968         0.148941
 C         2.649584         0.939099        -0.595596
 C         3.165222        -0.483698        -0.266952
 O         1.932385        -1.139472        -0.402796
 H        -0.540400         0.735800        -0.714486
 H        -0.465990        -1.033175        -0.311133
 H        -0.531817         0.091019         0.897336
 H         1.633509         0.900495         2.330617
 H         1.603482        -0.959459         2.195594
 H         3.939965        -0.720783         1.923351
 H         2.848256         2.766377         0.573690
 H         4.326225         2.550756        -0.322046
 H         2.745490         1.057714        -1.724326
 H         3.989342        -0.901064        -0.815350
