19
Iteration:  3166
 C        -0.078316         0.144372        -0.138746
 C         1.384696         0.115866         0.272168
 C         1.950699         0.052712         1.650345
 C         3.465294        -0.107135         1.304792
 O         4.095726         1.176942         1.137843
 C         3.377873         1.881078         0.118898
 C         2.521501         0.843563        -0.571141
 C         3.271852        -0.587230        -0.295035
 O         1.996688        -1.245352        -0.226207
 H        -0.951313         0.240223         0.621901
 H        -0.169722         0.857875        -0.927887
 H        -0.114188        -0.856147        -0.621905
 H         1.812692         1.081426         2.041987
 H         1.431788        -0.772933         2.341349
 H         4.153322        -0.695629         2.005363
 H         2.931108         2.813339         0.482612
 H         4.170940         2.311710        -0.536310
 H         2.124660         1.161451        -1.657240
 H         4.115968        -1.103685        -0.819492
