19
Iteration:   402charge 0 multiplicity 1
 C        -0.079894         0.190055        -0.062521
 C         1.413483         0.027669         0.141216
 C         2.082589        -0.385829         1.521937
 C         3.545942        -0.326553         1.106271
 O         4.045443         1.031179         1.369549
 C         3.235405         1.972678         0.638305
 C         2.507321         1.070331        -0.324540
 C         3.260430        -0.311582        -0.428938
 O         2.015359        -0.992134        -0.701167
 H        -0.672099         0.488541         0.820098
 H        -0.338497         1.008730        -0.757443
 H        -0.447248        -0.715869        -0.480307
 H         1.782340         0.286408         2.352551
 H         1.837956        -1.388098         1.734847
 H         4.267057        -1.134588         1.469096
 H         2.495606         2.563034         1.279327
 H         3.889276         2.544670         0.046316
 H         2.323638         1.479197        -1.422596
 H         4.014924        -0.531551        -1.234620
