19
Iteration:  4276charge 0 multiplicity 1
 C        -0.000069         0.073528        -0.151815
 C         1.400944         0.026938         0.232221
 C         2.025619         0.190159         1.613559
 C         3.495397        -0.096626         1.221915
 O         4.166482         1.097377         1.145707
 C         3.326369         1.898983         0.122365
 C         2.464497         0.831906        -0.527683
 C         3.173800        -0.491302        -0.223057
 O         1.956153        -1.266092        -0.173356
 H        -0.567199        -0.839642        -0.415890
 H        -0.566082         0.515674         0.741579
 H        -0.396903         0.774194        -0.978854
 H         1.914535         1.231439         1.913202
 H         1.585054        -0.469846         2.341012
 H         4.190607        -0.898635         1.595394
 H         2.670915         2.734611         0.514610
 H         3.970454         2.287091        -0.723476
 H         2.128576         1.069367        -1.611561
 H         4.179500        -0.851197        -0.768586
