19
Iteration:  4485
 C        -0.015661         0.204686        -0.079854
 C         1.413054         0.071284         0.256434
 C         1.978860         0.024771         1.687882
 C         3.459016        -0.011986         1.308448
 O         4.061336         1.258228         1.092522
 C         3.410077         1.852393        -0.078940
 C         2.560755         0.745315        -0.605827
 C         3.258233        -0.543618        -0.119179
 O         1.926142        -1.297773        -0.217928
 H        -0.221401         1.274078         0.137088
 H        -0.263895         0.058740        -1.217553
 H        -0.677368        -0.431141         0.578082
 H         1.607995         0.729501         2.359986
 H         1.682222        -0.948408         2.067099
 H         4.053382        -0.585538         1.963481
 H         2.723767         2.588067         0.320742
 H         4.051387         2.289161        -0.875528
 H         2.102528         0.766763        -1.609274
 H         4.077836        -1.157215        -0.535627
