19
Iteration:  2102
 C        -0.029085         0.477274        -0.080879
 C         1.430741         0.016346         0.170068
 C         2.000096        -0.109600         1.660766
 C         3.512468        -0.178815         1.282378
 O         3.960557         1.251957         1.201947
 C         3.195156         1.914422         0.105246
 C         2.566803         0.758186        -0.635172
 C         3.325855        -0.594388        -0.260176
 O         2.087530        -1.326409        -0.245930
 H        -0.105873         1.482277         0.637514
 H        -0.219208         0.785097        -1.114391
 H        -0.815205        -0.277332         0.221569
 H         1.755015         0.786035         2.291621
 H         1.544179        -1.065228         2.201474
 H         4.247382        -0.822625         1.702568
 H         2.375705         2.429751         0.636846
 H         3.779145         2.633062        -0.521264
 H         2.268612         0.871797        -1.752211
 H         4.086998        -0.976705        -0.897531
