19
Iteration:  2017
 C        -0.096717        -0.038519        -0.004088
 C         1.433517         0.093497         0.158565
 C         1.862613         0.086501         1.633055
 C         3.390180        -0.119528         1.267726
 O         4.118541         1.144056         1.205172
 C         3.480611         1.895407         0.190395
 C         2.552177         0.860046        -0.574776
 C         3.235279        -0.448112        -0.294950
 O         1.993601        -1.195332        -0.331080
 H        -0.648825         0.541332         0.664642
 H        -0.375609         0.329986        -0.911025
 H        -0.430064        -1.089682         0.080309
 H         1.825509         1.180440         1.896344
 H         1.378676        -0.466956         2.380368
 H         3.830307        -1.046852         1.678129
 H         3.278119         2.929020         0.456483
 H         4.277391         2.130530        -0.626480
 H         2.419588         1.253413        -1.627235
 H         4.065271        -0.829530        -0.878057
