19
Iteration:   821charge 0 multiplicity 1
 C        -0.059618         0.265976        -0.135870
 C         1.451571         0.039563         0.161538
 C         2.031419        -0.148411         1.647062
 C         3.490899        -0.192781         1.184820
 O         4.090251         1.139185         1.260792
 C         3.226771         1.940989         0.417952
 C         2.511177         0.888386        -0.523470
 C         3.236638        -0.458770        -0.324139
 O         2.033243        -1.232097        -0.467156
 H        -0.325906         1.310909         0.265834
 H        -0.322678         0.286838        -1.228084
 H        -0.605625        -0.563312         0.402803
 H         1.769374         0.754004         2.245484
 H         1.671825        -1.080794         2.173941
 H         4.201477        -0.857267         1.739852
 H         2.652636         2.625208         1.017925
 H         3.785471         2.628421        -0.217610
 H         2.243141         1.178448        -1.605314
 H         3.998713        -0.757314        -1.023480
