19
Iteration:  3756charge 0 multiplicity 1
 C        -0.081757         0.140955         0.004014
 C         1.442366         0.073259         0.193070
 C         1.952696         0.011888         1.588798
 C         3.469641        -0.201681         1.232752
 O         4.109109         1.182888         1.188966
 C         3.316691         1.948241         0.267131
 C         2.627686         0.830826        -0.555154
 C         3.267399        -0.562747        -0.245788
 O         1.949018        -1.171668        -0.427196
 H        -0.248171         0.223660        -1.049093
 H        -0.642975        -0.767360         0.278218
 H        -0.609701         0.975294         0.453824
 H         1.790236         0.922814         2.177607
 H         1.447377        -1.002345         1.934766
 H         4.061049        -0.573324         2.082298
 H         2.521926         2.496843         0.780634
 H         3.895083         2.612141        -0.402364
 H         2.651975         1.034752        -1.644584
 H         3.977715        -0.927617        -1.012513
