19
Iteration:  4539charge 0 multiplicity 1
 C         0.007474         0.448848         0.022340
 C         1.493777        -0.011515         0.121341
 C         1.981266         0.063273         1.686916
 C         3.482782        -0.017368         1.315444
 O         4.011771         1.282792         1.049232
 C         3.164421         1.849765         0.002581
 C         2.651669         0.633735        -0.674267
 C         3.289845        -0.665207        -0.144476
 O         1.998699        -1.335168        -0.162805
 H        -0.425571         0.831213         0.903276
 H        -0.106272         1.156750        -0.875391
 H        -0.590242        -0.450310        -0.194927
 H         1.603864         0.947922         2.151212
 H         1.533349        -0.822978         2.167138
 H         4.118970        -0.483757         2.012191
 H         2.397063         2.387363         0.550621
 H         3.678607         2.480957        -0.775882
 H         2.538371         0.598707        -1.766918
 H         3.941119        -1.365923        -0.704923
