19
Iteration:  3435charge 0 multiplicity 1
 C        -0.092787         0.205669        -0.030728
 C         1.421070         0.121832         0.109870
 C         1.983440         0.104590         1.640105
 C         3.395130        -0.123214         1.339111
 O         4.132459         1.190296         1.191856
 C         3.302993         1.912394         0.126182
 C         2.664585         0.759489        -0.599757
 C         3.233315        -0.614081        -0.217199
 O         2.017235        -1.249508        -0.355091
 H        -0.508318         0.222701         0.997741
 H        -0.509497         0.985571        -0.734184
 H        -0.504996        -0.737671        -0.376761
 H         1.695250         1.026142         2.350822
 H         1.478530        -0.744417         2.161311
 H         4.043083        -0.791553         1.911160
 H         2.508904         2.597758         0.498175
 H         3.927497         2.415895        -0.624031
 H         2.287906         0.849642        -1.697364
 H         4.009113        -1.211907        -0.681450
