19
Iteration:  1090
 C         0.040288         0.416247        -0.123183
 C         1.419352         0.031968         0.216434
 C         1.988642        -0.114224         1.646132
 C         3.468942        -0.156807         1.207622
 O         3.985417         1.236568         1.148103
 C         3.174962         1.946645         0.210351
 C         2.584942         0.798718        -0.564177
 C         3.367563        -0.625142        -0.239494
 O         1.991947        -1.281395        -0.304631
 H         0.019052         1.521253        -0.266468
 H        -0.195821        -0.186860        -0.939542
 H        -0.633005         0.029048         0.810988
 H         1.736916         0.757763         2.345374
 H         1.670935        -1.020561         2.142291
 H         4.151878        -0.679116         1.888504
 H         2.395420         2.513391         0.687476
 H         3.820432         2.473390        -0.456216
 H         2.437609         0.978038        -1.640284
 H         4.127660        -1.177051        -0.707567
