19
Iteration:  1636charge 0 multiplicity 1
 C        -0.058300         0.238416        -0.120578
 C         1.427257         0.042778         0.200969
 C         1.984844        -0.033026         1.645199
 C         3.442997        -0.091152         1.258562
 O         4.105999         1.189121         1.203375
 C         3.269345         1.950241         0.092308
 C         2.596256         0.766995        -0.581191
 C         3.280643        -0.536903        -0.219377
 O         1.945525        -1.257902        -0.267763
 H        -0.397572         0.819632         0.711262
 H        -0.128133         0.756513        -1.000030
 H        -0.587620        -0.751143        -0.161936
 H         1.880174         0.818379         2.429150
 H         1.614651        -0.984699         2.038063
 H         4.055572        -0.700282         1.925536
 H         2.559464         2.615029         0.622399
 H         3.989720         2.421873        -0.709525
 H         2.475805         1.032370        -1.692686
 H         4.103100        -0.914124        -0.833254
