19
Iteration:   370
 C        -0.072484         0.065599        -0.107006
 C         1.383733         0.077641         0.189176
 C         1.964789        -0.230395         1.518844
 C         3.513030        -0.340462         1.025953
 O         4.163145         0.949111         1.282309
 C         3.257144         1.927894         0.753882
 C         2.501308         1.101311        -0.247919
 C         3.229366        -0.211809        -0.461007
 O         2.076591        -1.021598        -0.704107
 H        -0.671671         0.909820         0.190992
 H        -0.190779        -0.147908        -1.184286
 H        -0.523691        -0.785388         0.404265
 H         1.679329         0.560697         2.274276
 H         1.619133        -1.182457         1.926287
 H         3.952897        -1.328126         1.312545
 H         2.609515         2.445650         1.601388
 H         3.795530         2.716749         0.303473
 H         2.307288         1.627489        -1.240864
 H         3.979983        -0.268915        -1.304958
