19
Iteration:   914
 C         0.060692         0.290622        -0.032101
 C         1.477382         0.078029         0.147214
 C         1.953005        -0.091931         1.612433
 C         3.454040        -0.174285         1.221265
 O         4.033811         1.192645         1.274577
 C         3.218807         1.909946         0.302845
 C         2.537354         0.858663        -0.509952
 C         3.280629        -0.510665        -0.370073
 O         2.024664        -1.299971        -0.438143
 H        -0.503652        -0.666576        -0.089170
 H        -0.406595         0.870058         0.847362
 H        -0.192722         0.937038        -0.997914
 H         1.634236         0.778360         2.196482
 H         1.461483        -0.928203         1.952655
 H         4.035388        -0.940208         1.869496
 H         2.542139         2.721621         0.677305
 H         3.863023         2.502034        -0.366594
 H         2.300854         1.058583        -1.520498
 H         4.257499        -0.881751        -0.806684
