19
Iteration:  4560charge 0 multiplicity 1
 C        -0.022068         0.256553        -0.087062
 C         1.404786         0.043051         0.255101
 C         1.990893         0.063880         1.710791
 C         3.451144        -0.024638         1.289035
 O         4.130127         1.284827         0.996739
 C         3.320431         1.900411         0.011288
 C         2.561138         0.662090        -0.642322
 C         3.264793        -0.635373        -0.078523
 O         1.926091        -1.287869        -0.198138
 H        -0.576256         0.509827         0.752545
 H        -0.074103         1.060116        -0.839159
 H        -0.483257        -0.653093        -0.485661
 H         1.738196         0.863723         2.418023
 H         1.567029        -0.872513         2.116246
 H         3.972002        -0.517538         2.038009
 H         2.562352         2.628931         0.342136
 H         4.055129         2.331082        -0.688707
 H         2.227682         0.564978        -1.697548
 H         4.167342        -0.994934        -0.625769
