19
Iteration:  4302charge 0 multiplicity 1
 C        -0.136337         0.139052        -0.009666
 C         1.371839         0.092417         0.157189
 C         1.940326         0.079906         1.688389
 C         3.437807         0.016647         1.286253
 O         4.187798         1.164488         1.094452
 C         3.346027         1.934012         0.138576
 C         2.664145         0.705638        -0.668088
 C         3.256096        -0.620809        -0.222298
 O         1.970614        -1.200672        -0.290125
 H        -0.480392        -0.810812        -0.360151
 H        -0.648209         0.264339         0.947651
 H        -0.666395         0.786290        -0.622436
 H         1.772404         1.017300         2.283763
 H         1.632045        -0.829295         2.364551
 H         4.094967        -0.625583         1.864371
 H         2.469388         2.441467         0.567582
 H         3.961885         2.564344        -0.463256
 H         2.423864         0.880446        -1.742367
 H         4.061285        -1.205726        -0.552412
