19
Iteration:  3638
 C        -0.100485         0.098846        -0.082984
 C         1.354706         0.003376         0.175676
 C         1.919520         0.056586         1.594458
 C         3.504044        -0.085132         1.229595
 O         4.103827         1.077102         1.253424
 C         3.392706         1.901942         0.188192
 C         2.559256         0.897468        -0.513474
 C         3.250507        -0.477695        -0.242693
 O         2.003944        -1.176448        -0.402956
 H        -0.423518        -0.004735        -1.094428
 H        -0.625888        -0.759792         0.508047
 H        -0.510004         0.943692         0.470567
 H         1.872719         1.031381         2.100071
 H         1.648016        -0.638746         2.363533
 H         3.925759        -0.924979         1.837092
 H         2.769376         2.656618         0.696195
 H         4.159333         2.362811        -0.527355
 H         2.444039         0.962440        -1.648614
 H         4.160672        -0.721609        -0.893039
