19
Iteration:   535charge 0 multiplicity 1
 C        -0.100127         0.059972        -0.161582
 C         1.399981        -0.017310         0.168973
 C         2.022312        -0.133462         1.541828
 C         3.490275        -0.299136         1.117129
 O         4.194502         0.984256         1.285119
 C         3.267538         1.951470         0.613503
 C         2.468694         1.067921        -0.387929
 C         3.234747        -0.276374        -0.356610
 O         1.994956        -1.056157        -0.587369
 H        -0.163274         0.605314        -1.046198
 H        -0.547453        -0.904141        -0.274743
 H        -0.604793         0.595325         0.736245
 H         1.939423         0.669231         2.244812
 H         1.679739        -0.988823         1.931504
 H         4.153469        -1.083932         1.447140
 H         2.658226         2.510668         1.362380
 H         3.795551         2.586720        -0.017193
 H         2.327899         1.569427        -1.314781
 H         4.038948        -0.584192        -1.055785
