19
Iteration:  3085charge 0 multiplicity 1
 C        -0.025950         0.318017        -0.104619
 C         1.397696         0.030696         0.196138
 C         2.024670        -0.088382         1.586002
 C         3.521823        -0.139876         1.232159
 O         3.996256         1.265971         1.188937
 C         3.269685         1.902951         0.142970
 C         2.580290         0.801620        -0.532104
 C         3.244289        -0.594332        -0.239803
 O         2.022384        -1.283336        -0.265550
 H         0.034279         1.388002        -0.218575
 H        -0.461739        -0.208116        -1.050546
 H        -0.636062         0.130011         0.808586
 H         1.773192         0.861063         2.174899
 H         1.588587        -0.877848         2.119164
 H         4.181290        -0.678201         1.875442
 H         2.464163         2.469638         0.622851
 H         3.965390         2.517081        -0.470239
 H         2.287359         0.949250        -1.550630
 H         4.062946        -0.982565        -0.845725
