19
Iteration:  4266charge 0 multiplicity 1
 C        -0.042618         0.141289        -0.178423
 C         1.385578        -0.020047         0.228702
 C         1.985978         0.136029         1.752339
 C         3.456162        -0.068709         1.165994
 O         4.185607         1.130018         1.159293
 C         3.326793         1.879741         0.086257
 C         2.422888         0.792786        -0.550010
 C         3.189958        -0.453622        -0.293785
 O         2.010966        -1.261604        -0.169694
 H        -0.312544        -0.902078        -0.245488
 H        -0.592184         0.642414         0.684647
 H         0.023537         0.667161        -1.158985
 H         2.019471         1.168014         2.109528
 H         1.696410        -0.510634         2.621777
 H         3.948785        -0.876827         1.782121
 H         2.901015         2.806802         0.577153
 H         4.133218         2.248866        -0.608135
 H         2.038891         1.103512        -1.624860
 H         4.007445        -1.072288        -0.893358
