19
Iteration:  1569charge 0 multiplicity 1
 C        -0.033035         0.291687        -0.010099
 C         1.411259         0.100171         0.189866
 C         1.944763        -0.119810         1.648481
 C         3.473544        -0.062777         1.250899
 O         3.972822         1.293574         1.226304
 C         3.317570         1.858410         0.063957
 C         2.664967         0.780038        -0.591236
 C         3.278990        -0.616325        -0.243777
 O         1.982781        -1.238244        -0.332267
 H        -0.352199         1.088042         0.727670
 H        -0.252608         0.629777        -0.982563
 H        -0.582113        -0.538050         0.312102
 H         1.687655         0.584255         2.435950
 H         1.852577        -1.217233         1.895727
 H         4.021539        -0.683195         1.986963
 H         2.582383         2.679008         0.283531
 H         4.254880         2.127703        -0.588504
 H         2.377737         0.948520        -1.718811
 H         4.127355        -1.212792        -0.746834
