19
Iteration:  1387
 C        -0.075052         0.211759        -0.160653
 C         1.408851         0.045511         0.168668
 C         2.007949         0.054087         1.691361
 C         3.464215        -0.121889         1.215419
 O         4.124622         1.212604         1.178115
 C         3.305346         1.906775         0.168680
 C         2.515628         0.787936        -0.611939
 C         3.224667        -0.563641        -0.239430
 O         2.007812        -1.271880        -0.239339
 H        -0.432583         0.687848         0.784891
 H        -0.274784         0.918872        -0.916055
 H        -0.641103        -0.741482        -0.126803
 H         1.971637         1.092811         2.318466
 H         1.617459        -0.872819         2.133718
 H         4.024090        -0.868412         1.848689
 H         2.614850         2.631492         0.740618
 H         4.022884         2.352382        -0.471550
 H         2.311434         0.898916        -1.695744
 H         4.156539        -0.936599        -0.815716
