19
Iteration:  2244charge 0 multiplicity 1
 C         0.038787         0.429540        -0.049998
 C         1.435381        -0.025098         0.193303
 C         2.032374        -0.026954         1.594669
 C         3.468731        -0.114016         1.294493
 O         3.963674         1.256430         1.176289
 C         3.207502         1.850097         0.184594
 C         2.567866         0.730715        -0.632580
 C         3.285584        -0.566966        -0.266340
 O         2.008873        -1.343244        -0.312082
 H        -0.011456         1.561835         0.203321
 H        -0.359224         0.289408        -1.014646
 H        -0.600119        -0.205141         0.601632
 H         1.926882         0.860237         2.224789
 H         1.704038        -0.851609         2.294456
 H         4.187519        -0.560930         1.991890
 H         2.495064         2.684987         0.577718
 H         3.897617         2.490359        -0.344789
 H         2.378100         0.916392        -1.730770
 H         4.089984        -1.070418        -0.844645
