19
Iteration:  3193
 C        -0.034775         0.266636        -0.119723
 C         1.405423         0.036121         0.188423
 C         2.004735         0.015032         1.662733
 C         3.454160        -0.047206         1.322100
 O         4.101996         1.219704         1.160374
 C         3.277417         1.837480         0.113091
 C         2.543416         0.712352        -0.663558
 C         3.238055        -0.521413        -0.210072
 O         1.991184        -1.314356        -0.237131
 H        -0.691519         0.203379         0.703087
 H        -0.202198         1.347513        -0.477359
 H        -0.380765        -0.331008        -0.990876
 H         1.961755         1.064565         2.152833
 H         1.604171        -0.695671         2.319394
 H         4.170144        -0.612536         1.869014
 H         2.554635         2.626840         0.499274
 H         4.036357         2.397508        -0.426297
 H         2.389861         0.959049        -1.660542
 H         4.112244        -0.978475        -0.667009
