19
Iteration:  1463charge 0 multiplicity 1
 C        -0.002454         0.288997         0.008411
 C         1.459856        -0.001967         0.165648
 C         1.951556        -0.034396         1.623990
 C         3.444038        -0.168357         1.243393
 O         3.948392         1.226473         1.228047
 C         3.318628         1.882099         0.073702
 C         2.568623         0.834303        -0.572898
 C         3.244298        -0.515596        -0.260341
 O         2.068436        -1.261881        -0.321881
 H         0.034553         1.391164        -0.234078
 H        -0.421746        -0.262887        -0.845991
 H        -0.563026         0.072526         1.077608
 H         1.726568         0.830185         2.405652
 H         1.488077        -0.888274         2.098562
 H         4.086107        -0.869357         1.831588
 H         2.744775         2.760373         0.505590
 H         4.058323         2.163403        -0.683604
 H         2.360163         1.039168        -1.625119
 H         4.107547        -1.029719        -0.805477
