19
Iteration:   779charge 0 multiplicity 1
 C        -0.036124         0.481329        -0.000474
 C         1.432555         0.021520         0.099300
 C         2.074582        -0.219558         1.662968
 C         3.506110        -0.246846         1.267281
 O         3.970246         1.185570         1.290464
 C         3.076111         1.942913         0.348925
 C         2.592682         0.864957        -0.525861
 C         3.280848        -0.478663        -0.376608
 O         2.090649        -1.291794        -0.557446
 H         0.033763         1.381668        -0.738650
 H        -0.536013        -0.499245        -0.364286
 H        -0.451141         0.587110         0.998793
 H         1.884432         0.358689         2.454667
 H         1.680621        -1.248859         1.901317
 H         4.267334        -0.834013         1.749982
 H         2.252445         2.603444         0.808257
 H         3.826304         2.589319        -0.091115
 H         2.505477         1.237948        -1.610767
 H         4.147143        -0.805422        -0.942291
