19
Iteration:    83charge 0 multiplicity 1
 C        -0.060935         0.179417         0.033050
 C         1.467407         0.037720         0.101418
 C         2.066501        -0.603282         1.333712
 C         3.628568        -0.379800         0.969961
 O         4.011808         0.884982         1.493349
 C         3.108801         1.903293         0.909647
 C         2.442390         1.178119        -0.229575
 C         3.350319        -0.126351        -0.538903
 O         2.048172        -0.798860        -0.887008
 H        -0.527604        -0.461807        -0.781978
 H        -0.636188        -0.000517         0.955258
 H        -0.323385         1.197764        -0.273587
 H         1.823124        -0.121954         2.356423
 H         1.661637        -1.668489         1.358397
 H         4.304174        -1.181205         1.295521
 H         2.522979         2.284722         1.742919
 H         3.749585         2.702462         0.633941
 H         1.971540         1.809849        -1.071517
 H         4.169987        -0.139759        -1.275332
