19
Iteration:  4090charge 0 multiplicity 1
 C        -0.125797         0.120142         0.057971
 C         1.421421         0.023201         0.119966
 C         1.898134         0.044562         1.613964
 C         3.439953        -0.124477         1.269957
 O         4.120896         1.147685         1.199308
 C         3.389094         1.875389         0.189399
 C         2.594343         0.825180        -0.601455
 C         3.280283        -0.469962        -0.221563
 O         1.988897        -1.159420        -0.441212
 H        -0.483663         0.971283         0.631168
 H        -0.553151        -0.098073        -0.848761
 H        -0.399625        -0.781536         0.691614
 H         1.756436         1.068458         2.119597
 H         1.483606        -0.800301         2.165623
 H         4.017464        -0.794473         1.836273
 H         2.780035         2.681250         0.597920
 H         4.094049         2.396069        -0.471708
 H         2.417532         0.974596        -1.632853
 H         4.071038        -0.893098        -0.757492
