19
Iteration:  1386charge 0 multiplicity 1
 C        -0.076865         0.212495        -0.170421
 C         1.411807         0.041884         0.164265
 C         2.004571         0.064130         1.687177
 C         3.471645        -0.126389         1.214590
 O         4.127352         1.208307         1.178693
 C         3.307883         1.908328         0.176330
 C         2.506866         0.791554        -0.607212
 C         3.230926        -0.562130        -0.238928
 O         2.005876        -1.270660        -0.236133
 H        -0.448130         0.661271         0.798223
 H        -0.318236         0.912389        -0.912570
 H        -0.676754        -0.781034        -0.111389
 H         1.988077         1.098263         2.293736
 H         1.660920        -0.877641         2.148706
 H         3.994686        -0.854426         1.863376
 H         2.646096         2.647686         0.765332
 H         4.012003         2.351857        -0.495739
 H         2.294877         0.891951        -1.718120
 H         4.141977        -0.949697        -0.815979
