19
Iteration:   511
 C        -0.079801         0.161743        -0.189752
 C         1.398035         0.028387         0.244786
 C         1.982887        -0.267172         1.618389
 C         3.493340        -0.247695         1.117539
 O         4.189182         1.000000         1.295635
 C         3.229739         1.941910         0.592695
 C         2.495630         1.041926        -0.364409
 C         3.206162        -0.297174        -0.453042
 O         2.064038        -1.067445        -0.621228
 H        -0.180383        -0.224586        -1.222121
 H        -0.619894        -0.514379         0.533933
 H        -0.531635         1.160643         0.021308
 H         2.022700         0.515392         2.400399
 H         1.730336        -1.176672         2.039575
 H         4.182741        -0.938843         1.604182
 H         2.517021         2.351599         1.317296
 H         3.762987         2.757433         0.037867
 H         2.192996         1.468391        -1.409340
 H         3.873080        -0.599492        -1.307314
