19
Iteration:  2174charge 0 multiplicity 1
 C        -0.116082         0.014113        -0.111337
 C         1.422707         0.044556         0.154008
 C         1.932055         0.089237         1.630770
 C         3.492489        -0.099597         1.292571
 O         4.150898         1.125708         1.219145
 C         3.465359         1.888128         0.226721
 C         2.528975         0.873863        -0.566302
 C         3.167916        -0.458771        -0.374965
 O         1.979025        -1.195757        -0.267216
 H        -0.411002         0.892005        -0.498540
 H        -0.474585        -0.812688        -0.791065
 H        -0.604726        -0.130315         0.794596
 H         1.754766         1.032734         2.099812
 H         1.323695        -0.582829         2.178737
 H         3.999965        -0.843302         1.954135
 H         2.940492         2.845193         0.498304
 H         4.292475         2.235620        -0.449805
 H         2.115705         1.282383        -1.507056
 H         3.975227        -0.954084        -0.918085
