19
Iteration:  2870
 C        -0.095908         0.177271        -0.025308
 C         1.438130         0.070743         0.216907
 C         1.946680         0.034730         1.624867
 C         3.482245        -0.118076         1.268946
 O         4.047199         1.197392         1.232510
 C         3.389027         1.888895         0.034130
 C         2.552076         0.755214        -0.615517
 C         3.219120        -0.499358        -0.215259
 O         2.033506        -1.254514        -0.277509
 H        -0.688875         0.837207         0.738995
 H        -0.116379         0.591042        -1.080827
 H        -0.621655        -0.758467        -0.174424
 H         2.026119         0.947049         2.248799
 H         1.385687        -0.655928         2.217510
 H         4.052186        -0.817388         1.841944
 H         2.738880         2.781362         0.428231
 H         4.189430         2.252384        -0.626612
 H         2.323147         0.872330        -1.778951
 H         3.952512        -0.788284        -0.946856
