19
Iteration:  1806
 C        -0.114256         0.196032        -0.080652
 C         1.421032         0.012877         0.220186
 C         1.970748         0.032871         1.625242
 C         3.536495        -0.045475         1.314240
 O         4.144801         1.168271         1.126067
 C         3.248815         1.885693         0.195476
 C         2.599092         0.805718        -0.605402
 C         3.261421        -0.599735        -0.226470
 O         1.937966        -1.198731        -0.356595
 H        -0.641967         1.005918         0.531817
 H        -0.126707         0.469416        -1.194298
 H        -0.585352        -0.710783         0.129027
 H         1.631153         0.856372         2.169226
 H         1.767847        -0.982605         2.133842
 H         4.143906        -0.608567         2.035759
 H         2.583060         2.545025         0.842959
 H         3.998619         2.606169        -0.321877
 H         2.396545         1.044692        -1.650068
 H         4.136807        -1.132088        -0.696941
