19
Iteration:  4466
 C        -0.146619         0.067637        -0.065735
 C         1.350201         0.121907         0.194202
 C         1.927143         0.047771         1.707326
 C         3.469496        -0.063655         1.337346
 O         4.163200         1.244906         1.076327
 C         3.433817         1.911998        -0.011044
 C         2.588855         0.737355        -0.603280
 C         3.225122        -0.574126        -0.173521
 O         1.945124        -1.190578        -0.221677
 H        -0.675004         1.041445        -0.387987
 H        -0.176976        -0.623595        -0.962967
 H        -0.666515        -0.196076         0.818824
 H         1.789591         0.910328         2.333003
 H         1.683465        -0.876767         2.280490
 H         4.202422        -0.563887         2.010406
 H         2.943217         2.860262         0.298393
 H         4.247755         1.996644        -0.710507
 H         2.522117         0.737602        -1.650474
 H         3.925810        -1.072448        -0.718707
