19
Iteration:  4310charge 0 multiplicity 1
 C        -0.137752         0.144996        -0.013347
 C         1.445257         0.070075         0.189721
 C         1.962815         0.076930         1.660671
 C         3.424390        -0.029925         1.309388
 O         4.160193         1.209349         1.107207
 C         3.313041         1.873666         0.049805
 C         2.713112         0.759017        -0.673764
 C         3.228064        -0.580453        -0.145118
 O         1.930051        -1.219297        -0.318539
 H        -0.579015        -0.807984        -0.227197
 H        -0.358705         0.286452         1.134651
 H        -0.593626         1.059365        -0.497102
 H         1.463051         0.800691         2.268711
 H         1.622023        -0.931084         2.051557
 H         4.162933        -0.670364         1.848808
 H         2.567132         2.459342         0.682666
 H         4.001032         2.584153        -0.471700
 H         2.388140         0.803651        -1.809126
 H         4.207435        -1.129988        -0.528843
