19
Iteration:  2409charge 0 multiplicity 1
 C         0.050404         0.400858        -0.027666
 C         1.446225        -0.044688         0.211957
 C         1.997422        -0.109235         1.707991
 C         3.488772        -0.082554         1.228761
 O         3.904016         1.278014         1.204433
 C         3.292129         1.892500         0.094729
 C         2.535184         0.773220        -0.565240
 C         3.271926        -0.611286        -0.307580
 O         2.022902        -1.298660        -0.306814
 H         0.200154         1.411035        -0.240212
 H        -0.374193         0.015131        -0.963890
 H        -0.808520         0.331226         0.704511
 H         1.752804         0.805719         2.412048
 H         1.709682        -1.028933         2.122184
 H         4.209690        -0.695601         1.804041
 H         2.642596         2.770838         0.445767
 H         3.992631         2.289696        -0.614977
 H         2.430273         0.934166        -1.612551
 H         4.131404        -1.071330        -0.923967
