19
Iteration:  2518
 C        -0.025610         0.065355        -0.169491
 C         1.382373         0.094158         0.275971
 C         1.955576         0.119229         1.672382
 C         3.427138        -0.101619         1.240662
 O         4.218235         1.196562         1.044108
 C         3.383901         1.855210         0.192271
 C         2.549034         0.790527        -0.523551
 C         3.158795        -0.524731        -0.217537
 O         1.941049        -1.187966        -0.267665
 H        -0.550862         0.774435         0.359871
 H        -0.025075         0.172444        -1.238211
 H        -0.457036        -0.966027        -0.006475
 H         1.748532         1.009114         2.381566
 H         1.757993        -0.778647         2.174591
 H         3.820081        -0.867227         1.904970
 H         2.638453         2.549790         0.695503
 H         4.003926         2.488433        -0.374539
 H         2.266430         0.886010        -1.517072
 H         3.984811        -0.915676        -0.846122
