19
Iteration:  2137
 C        -0.077003         0.185666        -0.016954
 C         1.469275         0.055597         0.142539
 C         1.954047        -0.029070         1.661271
 C         3.437682        -0.145459         1.371721
 O         4.042749         1.225451         1.216985
 C         3.345264         1.861066         0.101287
 C         2.598650         0.800588        -0.606520
 C         3.276196        -0.557579        -0.261479
 O         1.984980        -1.180122        -0.391789
 H        -0.331672         1.326854        -0.107405
 H        -0.435583        -0.294929        -0.909100
 H        -0.616051        -0.196703         0.952769
 H         1.646753         0.939751         2.262932
 H         1.500861        -0.934427         2.150384
 H         4.263721        -0.645665         1.921220
 H         2.725256         2.637211         0.529588
 H         4.091491         2.439674        -0.594411
 H         2.251688         0.989055        -1.611711
 H         4.118706        -0.974069        -0.894565
