19
Iteration:   909charge 0 multiplicity 1
 C         0.039572         0.242615        -0.030345
 C         1.450805         0.060273         0.126853
 C         1.969813        -0.062775         1.572970
 C         3.461147        -0.198904         1.208638
 O         4.025540         1.178350         1.286669
 C         3.265180         1.914876         0.280050
 C         2.553336         0.904352        -0.507324
 C         3.289502        -0.488525        -0.290448
 O         2.005658        -1.288656        -0.452312
 H        -0.493579        -0.725129        -0.012357
 H        -0.222870         0.938149         0.799014
 H        -0.349504         0.669316        -0.887683
 H         1.616196         0.820624         2.144236
 H         1.348473        -0.973186         1.985238
 H         4.056387        -0.806235         1.808336
 H         2.633447         2.661028         0.764036
 H         3.977883         2.446454        -0.364706
 H         2.128155         1.200465        -1.522438
 H         4.164713        -0.870645        -0.784375
