19
Iteration:  4222
 C        -0.018725         0.247882         0.066710
 C         1.461901         0.063409         0.161962
 C         1.971920        -0.013746         1.650500
 C         3.447755        -0.104430         1.340685
 O         4.039007         1.290291         1.161065
 C         3.325390         1.878937         0.076375
 C         2.569579         0.756589        -0.679929
 C         3.287458        -0.622807        -0.233444
 O         1.952740        -1.234997        -0.326453
 H        -0.554571        -0.218351         0.899006
 H        -0.254024         1.332519         0.288934
 H        -0.400791        -0.193187        -0.910093
 H         1.617288         0.749488         2.373284
 H         1.642355        -1.079367         1.929390
 H         4.083502        -0.679889         2.043042
 H         2.597642         2.708498         0.340042
 H         3.890400         2.474681        -0.692204
 H         2.476198         0.787739        -1.856970
 H         4.197761        -1.170933        -0.756869
