19
Iteration:  3245charge 0 multiplicity 1
 C         0.031452         0.321291        -0.022071
 C         1.455202        -0.025602         0.228081
 C         1.919514         0.154230         1.635444
 C         3.472281        -0.065775         1.337720
 O         3.975223         1.234150         1.211840
 C         3.309754         1.847980        -0.011055
 C         2.567027         0.684599        -0.672419
 C         3.293655        -0.598782        -0.244589
 O         2.011673        -1.312036        -0.269864
 H        -0.660486        -0.484786         0.046349
 H        -0.398103         0.989635         0.663167
 H        -0.119075         0.813365        -1.008471
 H         1.675439         0.961165         2.317194
 H         1.635347        -0.794607         2.153037
 H         4.162171        -0.563821         1.996491
 H         2.578306         2.589900         0.319624
 H         4.128751         2.301414        -0.481965
 H         2.280043         0.828129        -1.647036
 H         4.047400        -1.151028        -0.835155
