19
Iteration:  2726
 C         0.025119         0.296488        -0.034883
 C         1.425717        -0.002829         0.222239
 C         1.977881        -0.071621         1.632242
 C         3.506074        -0.109343         1.329439
 O         3.987002         1.296026         1.196739
 C         3.333368         1.876415         0.036758
 C         2.535593         0.779223        -0.560479
 C         3.235279        -0.595974        -0.249060
 O         1.998245        -1.259787        -0.337349
 H        -0.264110         1.183587         0.476661
 H        -0.197168         0.286050        -1.182995
 H        -0.648683        -0.530005         0.329930
 H         1.628028         0.790274         2.267899
 H         1.694323        -0.883036         2.213139
 H         4.146303        -0.522509         2.151719
 H         2.840868         2.767497         0.232038
 H         4.089848         2.146320        -0.667550
 H         2.135404         1.022632        -1.531232
 H         4.048581        -0.848250        -0.946687
