19
Iteration:   271charge 0 multiplicity 1
 C        -0.036315         0.367016         0.103764
 C         1.426863         0.023346         0.181857
 C         2.128624        -0.548100         1.403893
 C         3.600968        -0.369350         1.064728
 O         3.896764         0.986807         1.475825
 C         3.124599         1.969970         0.690312
 C         2.490846         1.059398        -0.323328
 C         3.300490        -0.255254        -0.517561
 O         2.126408        -0.980778        -0.862581
 H        -0.672228        -0.320772        -0.583954
 H        -0.547788         0.328194         1.082291
 H        -0.220372         1.342077        -0.316646
 H         1.790556        -0.134890         2.456826
 H         1.856600        -1.607517         1.412558
 H         4.355669        -1.093364         1.459128
 H         2.371742         2.601300         1.288500
 H         3.684364         2.731190         0.203393
 H         2.087419         1.513340        -1.343762
 H         4.200653        -0.357187        -1.118058
