19
Iteration:  1816charge 0 multiplicity 1
 C        -0.100674         0.106581        -0.099531
 C         1.398415         0.043169         0.160081
 C         1.995285         0.068750         1.637763
 C         3.441956        -0.136837         1.322515
 O         4.205717         1.196719         1.088274
 C         3.345925         1.900578         0.245874
 C         2.595854         0.812605        -0.548225
 C         3.221175        -0.510605        -0.228253
 O         1.940873        -1.198914        -0.315348
 H        -0.675985         0.800359         0.579542
 H        -0.405327         0.399953        -1.195143
 H        -0.460844        -0.848164        -0.042160
 H         1.703880         0.860980         2.300801
 H         1.578719        -0.912688         2.164905
 H         3.953116        -0.732850         2.104959
 H         2.523141         2.612933         0.613643
 H         3.995942         2.547020        -0.576553
 H         2.478649         0.960375        -1.586604
 H         3.902318        -0.998478        -1.006041
