19
Iteration:  3617charge 0 multiplicity 1
 C        -0.088086         0.093767        -0.158619
 C         1.399879         0.047960         0.245781
 C         1.925084         0.000104         1.646432
 C         3.387663        -0.179906         1.329204
 O         4.239636         1.200758         1.108577
 C         3.390181         1.925880         0.264466
 C         2.567426         0.895194        -0.546200
 C         3.182682        -0.495815        -0.279052
 O         1.977661        -1.204387        -0.349975
 H        -0.131045         0.471263        -1.180035
 H        -0.583872        -0.986074        -0.164947
 H        -0.670884         0.710685         0.549469
 H         1.633383         0.742995         2.398745
 H         1.425317        -0.863515         1.954731
 H         4.124558        -0.707217         1.971745
 H         2.866170         2.807605         0.704983
 H         4.156858         2.260931        -0.476978
 H         2.109604         1.088112        -1.563553
 H         4.127287        -0.847655        -0.749914
