19
Iteration:  4746charge 0 multiplicity 1
 C        -0.141059         0.066969         0.049189
 C         1.340947         0.081414         0.200061
 C         1.928620         0.338800         1.577222
 C         3.418197        -0.036575         1.257164
 O         4.102614         1.191928         1.110758
 C         3.456845         1.822551        -0.079230
 C         2.615917         0.710236        -0.609151
 C         3.246040        -0.628909        -0.205842
 O         2.008442        -1.295238        -0.138795
 H        -0.514423        -0.780010        -0.417512
 H        -0.580977         0.209178         1.101043
 H        -0.439130         0.917199        -0.503197
 H         1.853534         1.379817         1.881836
 H         1.520381        -0.212054         2.515304
 H         3.972376        -0.733341         1.875161
 H         2.884507         2.613445         0.444755
 H         4.149150         2.242292        -0.789105
 H         2.616672         0.927889        -1.660900
 H         4.081983        -1.106976        -0.664943
