19
Iteration:  2907charge 0 multiplicity 1
 C         0.079092         0.352183         0.020684
 C         1.450780         0.069170         0.153270
 C         1.970242        -0.071064         1.559495
 C         3.436991        -0.112325         1.347847
 O         4.052895         1.302174         1.117715
 C         3.190410         1.916211         0.129159
 C         2.603859         0.733268        -0.631944
 C         3.272910        -0.624698        -0.147250
 O         1.975874        -1.330849        -0.331201
 H        -0.262073         1.213527         0.721477
 H        -0.100894         0.734853        -0.968219
 H        -0.535536        -0.571521         0.266479
 H         1.727255         0.799332         2.143427
 H         1.470271        -0.986634         2.033895
 H         4.103319        -0.576458         2.125613
 H         2.534112         2.644803         0.551870
 H         3.799173         2.591798        -0.517092
 H         2.445101         0.630714        -1.681507
 H         4.015860        -1.114508        -0.831682
