19
Iteration:  2992charge 0 multiplicity 1
 C        -0.180683         0.062874        -0.031746
 C         1.436504         0.136489         0.162971
 C         1.929316         0.069830         1.612145
 C         3.410514        -0.150795         1.275301
 O         4.097499         1.153882         1.178759
 C         3.386796         1.974619         0.111009
 C         2.602120         0.846321        -0.551454
 C         3.328199        -0.522641        -0.162091
 O         1.985992        -1.256496        -0.394840
 H        -0.653305         0.982094        -0.557456
 H        -0.285158        -0.843509        -0.546320
 H        -0.595583        -0.011602         0.984251
 H         1.904159         0.998818         2.084567
 H         1.486008        -0.779944         2.217100
 H         4.117879        -0.713403         1.895502
 H         2.736718         2.655539         0.725955
 H         4.219241         2.277531        -0.452882
 H         2.300932         1.124728        -1.670514
 H         4.187614        -0.985207        -0.614477
