19
Iteration:  3181charge 0 multiplicity 1
 C         0.020578         0.196232        -0.178833
 C         1.433434        -0.041163         0.210662
 C         1.951085         0.129690         1.684826
 C         3.477635        -0.124890         1.191094
 O         4.056940         1.190256         1.157458
 C         3.345231         1.930818         0.099592
 C         2.543512         0.800934        -0.529343
 C         3.213162        -0.542648        -0.201300
 O         1.966663        -1.272970        -0.218173
 H        -0.511479         0.187656         0.739411
 H        -0.020406         1.204892        -0.639159
 H        -0.437428        -0.620141        -0.795044
 H         1.837213         1.089263         2.293879
 H         1.587793        -0.718586         2.279179
 H         4.042119        -0.828225         1.789123
 H         2.705600         2.728658         0.590113
 H         4.020562         2.328402        -0.635184
 H         2.280039         0.803246        -1.522127
 H         4.008682        -0.978968        -0.839112
