19
Iteration:  4207
 C         0.000606         0.361066         0.145468
 C         1.450047         0.017288         0.190782
 C         1.957730        -0.009051         1.585842
 C         3.459345        -0.033768         1.239748
 O         3.920273         1.212035         1.203481
 C         3.266522         1.856378         0.041694
 C         2.681152         0.722174        -0.642313
 C         3.271222        -0.571180        -0.246719
 O         2.054991        -1.324083        -0.351266
 H        -0.522795        -0.010865         1.113341
 H        -0.260910         1.374962        -0.084232
 H        -0.643751        -0.151978        -0.664152
 H         1.809893         0.979480         2.062015
 H         1.529906        -0.732848         2.151669
 H         4.134463        -0.572801         1.867616
 H         2.535499         2.579688         0.473751
 H         4.129272         2.406048        -0.372545
 H         2.330476         0.846892        -1.565557
 H         4.022661        -0.984477        -0.789217
