19
Iteration:  2506charge 0 multiplicity 1
 C        -0.059621         0.053068        -0.164402
 C         1.377608         0.041472         0.218436
 C         1.924231         0.123404         1.692875
 C         3.466629        -0.093188         1.255266
 O         4.247232         1.096280         1.074260
 C         3.383053         1.980742         0.177064
 C         2.549032         0.870748        -0.591524
 C         3.180437        -0.490188        -0.216999
 O         1.912936        -1.262692        -0.213489
 H        -0.765631         0.695998         0.337872
 H        -0.138015         0.302976        -1.184040
 H        -0.409502        -1.016208        -0.022178
 H         1.838017         0.994147         2.394061
 H         1.375890        -0.669205         2.130495
 H         4.212920        -0.665764         1.820245
 H         2.780366         2.625655         0.892667
 H         3.965003         2.579330        -0.510326
 H         2.435322         1.043361        -1.659963
 H         3.996090        -0.999023        -0.811803
