19
Iteration:  2351
 C        -0.101133         0.078794        -0.073393
 C         1.412684         0.060621         0.152379
 C         1.896024         0.079298         1.548034
 C         3.396467        -0.096398         1.273764
 O         4.273152         1.161120         1.114888
 C         3.401429         1.933831         0.219655
 C         2.531666         0.854201        -0.559085
 C         3.250917        -0.532134        -0.211934
 O         1.921413        -1.246005        -0.249713
 H        -0.662168         0.923241         0.433880
 H        -0.271343         0.075939        -1.099751
 H        -0.438186        -0.802117         0.391250
 H         1.766370         1.034872         1.916693
 H         1.450385        -0.733168         2.248651
 H         4.050042        -0.825426         1.758365
 H         2.688041         2.435309         0.841050
 H         3.945971         2.695722        -0.366333
 H         2.500837         1.000361        -1.759404
 H         4.111501        -0.922489        -0.793516
