19
Iteration:  2728charge 0 multiplicity 1
 C         0.036590         0.303992        -0.047019
 C         1.435107        -0.004529         0.222980
 C         1.975336        -0.095113         1.641611
 C         3.494981        -0.110791         1.338837
 O         3.988071         1.310488         1.186622
 C         3.327696         1.872998         0.028983
 C         2.549357         0.785049        -0.547232
 C         3.225539        -0.595552        -0.260380
 O         1.997474        -1.263935        -0.329481
 H        -0.256228         1.222449         0.497095
 H        -0.245531         0.256667        -1.144285
 H        -0.609647        -0.468069         0.325008
 H         1.612870         0.780149         2.227242
 H         1.714009        -0.937274         2.233217
 H         4.123646        -0.553146         2.146724
 H         2.819354         2.775937         0.259191
 H         4.080526         2.155901        -0.688773
 H         2.109045         1.084068        -1.572284
 H         4.054180        -0.873543        -0.922653
