19
Iteration:  3782
 C        -0.115725         0.077471        -0.020867
 C         1.421530         0.033744         0.122594
 C         1.901572         0.056067         1.702793
 C         3.400921        -0.123860         1.274648
 O         4.144859         1.084995         1.252356
 C         3.453324         1.901390         0.171084
 C         2.512184         0.868835        -0.591132
 C         3.207656        -0.420151        -0.290686
 O         2.064669        -1.171348        -0.415199
 H        -0.640945         0.692494        -0.781123
 H        -0.459433        -0.946350        -0.115047
 H        -0.539615         0.385044         0.922642
 H         1.533360         0.955782         2.310495
 H         1.516119        -0.839538         2.123963
 H         4.007151        -0.784860         1.895836
 H         2.894226         2.709495         0.640547
 H         4.166506         2.235626        -0.598419
 H         2.487754         1.046332        -1.672904
 H         4.017378        -0.730599        -0.936926
