19
Iteration:  3373charge 0 multiplicity 1
 C        -0.034872         0.323979        -0.111279
 C         1.468433        -0.010100         0.254144
 C         1.987570        -0.043739         1.708335
 C         3.458974        -0.086324         1.303459
 O         4.012597         1.273700         1.116000
 C         3.318961         1.809776         0.032532
 C         2.610266         0.708665        -0.606939
 C         3.273181        -0.542066        -0.164453
 O         1.937914        -1.194941        -0.280331
 H        -0.879428        -0.392345         0.249808
 H        -0.229889         1.300845         0.250233
 H        -0.159721         0.272742        -1.243459
 H         1.831908         0.713736         2.335529
 H         1.737282        -1.062583         2.017532
 H         4.160748        -0.657983         1.875853
 H         2.619877         2.598263         0.381075
 H         4.061622         2.386146        -0.610018
 H         2.206291         0.849961        -1.594409
 H         4.157942        -1.126166        -0.413873
