19
Iteration:  1859
 C        -0.119724        -0.019873        -0.083391
 C         1.398017         0.028447         0.209340
 C         1.955906         0.107770         1.657434
 C         3.414016        -0.102869         1.270468
 O         4.123165         1.209349         1.249021
 C         3.502457         1.844148         0.146223
 C         2.548847         0.843535        -0.531031
 C         3.176887        -0.468264        -0.354193
 O         1.944397        -1.206543        -0.345960
 H        -0.510052         0.664522         0.696804
 H        -0.414195         0.436577        -1.120510
 H        -0.447884        -0.980045        -0.002952
 H         2.043016         1.128886         2.100541
 H         1.535364        -0.663246         2.465849
 H         4.037537        -0.831148         1.836252
 H         3.035198         2.802577         0.505538
 H         4.285818         2.318673        -0.646399
 H         2.389010         1.079323        -1.520563
 H         4.150826        -0.734214        -0.933102
