19
Iteration:   242charge 0 multiplicity 1
 C        -0.049871         0.186073         0.018109
 C         1.460081         0.054417         0.145027
 C         1.995212        -0.471039         1.473646
 C         3.557937        -0.348802         1.072437
 O         4.058980         0.976319         1.421129
 C         3.148991         1.907103         0.775687
 C         2.528585         1.115490        -0.323409
 C         3.269725        -0.188939        -0.575128
 O         2.067456        -0.930404        -0.832763
 H        -0.435944        -0.768590         0.296889
 H        -0.389907         0.839489         0.860421
 H        -0.390044         0.550105        -1.053258
 H         1.700264         0.049685         2.381106
 H         1.638028        -1.555626         1.513587
 H         4.187626        -1.225250         1.388022
 H         2.383494         2.231557         1.459529
 H         3.757683         2.902993         0.484740
 H         2.098450         1.705176        -1.026291
 H         4.212266        -0.447006        -1.163484
