19
Iteration:  2012
 C        -0.119683        -0.040224        -0.002357
 C         1.416920         0.036793         0.189712
 C         1.907111         0.148177         1.631991
 C         3.391002        -0.111863         1.208067
 O         4.077220         1.136760         1.205861
 C         3.522415         1.887486         0.191141
 C         2.567272         0.862926        -0.528433
 C         3.243336        -0.450056        -0.305141
 O         1.990079        -1.194524        -0.358169
 H        -0.752529         0.722622         0.684520
 H        -0.362255         0.248029        -1.134716
 H        -0.398712        -1.087502         0.127514
 H         1.688878         1.187811         1.874529
 H         1.391499        -0.501323         2.526516
 H         3.907161        -0.931207         1.718181
 H         3.169786         2.901171         0.543161
 H         4.328829         2.166468        -0.521827
 H         2.417059         1.193352        -1.552544
 H         4.099833        -0.911800        -0.840667
