19
Iteration:  2074
 C         0.068615         0.392663        -0.084856
 C         1.473837         0.005519         0.204379
 C         2.010147        -0.034681         1.648444
 C         3.493519        -0.118560         1.271067
 O         3.996670         1.233567         1.184483
 C         3.205173         1.922549         0.132947
 C         2.509636         0.735429        -0.582330
 C         3.279672        -0.591729        -0.231544
 O         1.992349        -1.300576        -0.301815
 H        -0.322699         0.905810         0.670059
 H         0.045627         1.024736        -0.979686
 H        -0.596643        -0.470729        -0.269779
 H         1.684378         0.875878         2.186853
 H         1.717925        -0.868374         2.131372
 H         4.209052        -0.907125         1.733367
 H         2.464950         2.504938         0.699006
 H         3.856018         2.532291        -0.518551
 H         2.196688         0.795710        -1.582322
 H         4.139547        -0.995996        -0.880629
