19
Iteration:   129charge 0 multiplicity 1
 C         0.086162         0.339735         0.165544
 C         1.459437        -0.007590         0.074403
 C         2.109270        -0.656366         1.325635
 C         3.574779        -0.406455         0.971204
 O         3.919652         0.930436         1.523586
 C         2.982051         1.916596         0.826686
 C         2.428933         1.122979        -0.285231
 C         3.335191        -0.134562        -0.567908
 O         2.137558        -0.877440        -0.883663
 H        -0.299334         1.285868        -0.453577
 H        -0.701205        -0.377064        -0.116530
 H        -0.217116         0.554416         1.156590
 H         1.901581        -0.047172         2.356793
 H         1.810669        -1.673366         1.494556
 H         4.296027        -1.097560         1.359543
 H         2.324231         2.327473         1.577814
 H         3.637592         2.777398         0.458905
 H         2.255490         1.629196        -1.285295
 H         4.076331        -0.256199        -1.319861
