19
Iteration:  4930
 C        -0.069753        -0.023702        -0.101429
 C         1.457616         0.035356         0.213508
 C         1.877705         0.340588         1.672918
 C         3.399711        -0.040941         1.267616
 O         4.311707         1.220792         0.950328
 C         3.445315         1.846055         0.032478
 C         2.538695         0.779807        -0.643274
 C         3.183244        -0.603390        -0.132577
 O         1.843870        -1.257355        -0.039004
 H        -0.288680        -0.762200        -0.917466
 H        -0.608841        -0.401858         0.895423
 H        -0.471806         0.953080        -0.414074
 H         1.875535         1.346240         2.040900
 H         1.400414        -0.343150         2.452882
 H         4.050933        -0.584214         1.856993
 H         2.766795         2.604910         0.519608
 H         4.066158         2.226848        -0.812593
 H         2.356272         0.745525        -1.739019
 H         4.083530        -1.140432        -0.565522
