19
Iteration:  1039charge 0 multiplicity 1
 C        -0.130611         0.007726        -0.053615
 C         1.364796         0.125241         0.184464
 C         1.955612         0.032258         1.600329
 C         3.420629        -0.164852         1.297740
 O         4.085287         1.088638         1.195561
 C         3.478647         1.966301         0.162740
 C         2.601871         0.916943        -0.550030
 C         3.232514        -0.478449        -0.198936
 O         1.993359        -1.167975        -0.384219
 H        -0.480358         0.812299        -0.749472
 H        -0.243613        -0.949683        -0.610250
 H        -0.666011         0.106069         0.863788
 H         1.726843         0.943001         2.164485
 H         1.370693        -0.808499         2.083792
 H         4.022740        -0.834946         1.798919
 H         2.909332         2.726128         0.739766
 H         4.292237         2.379624        -0.523329
 H         2.386530         0.983181        -1.667548
 H         4.049607        -0.884221        -0.786170
