19
Iteration:  3818charge 0 multiplicity 1
 C        -0.086628         0.142544        -0.132924
 C         1.401127         0.060167         0.181261
 C         2.044163        -0.038010         1.747607
 C         3.534832        -0.118981         1.245202
 O         4.028458         1.221058         1.274386
 C         3.397799         1.900560         0.151918
 C         2.552916         0.873467        -0.571694
 C         3.197116        -0.526724        -0.312344
 O         1.933517        -1.213440        -0.363410
 H        -0.286349         1.091440        -0.755042
 H        -0.408426        -0.740214        -0.737269
 H        -0.460932         0.105119         0.974318
 H         1.877367         0.792825         2.440707
 H         1.608469        -0.987701         2.152536
 H         4.051919        -0.944790         1.906902
 H         2.937569         2.850894         0.548976
 H         4.219780         2.317884        -0.452829
 H         2.372333         0.919017        -1.641981
 H         3.903725        -0.975445        -1.111124
