19
Iteration:  3864charge 0 multiplicity 1
 C        -0.037460         0.416109        -0.013116
 C         1.454279        -0.028255         0.112759
 C         2.003870        -0.030368         1.637412
 C         3.466456        -0.149511         1.292427
 O         4.048302         1.211560         1.140917
 C         3.169849         1.919520         0.225255
 C         2.558225         0.758158        -0.614614
 C         3.292037        -0.538764        -0.263654
 O         2.056631        -1.374530        -0.315736
 H         0.207426         1.458026         0.204851
 H        -0.368260         0.500532        -1.140318
 H        -0.680088        -0.131403         0.745097
 H         1.791786         0.826447         2.197174
 H         1.427814        -0.923677         2.073537
 H         4.189068        -0.646521         1.911167
 H         2.382240         2.580229         0.693130
 H         3.669014         2.612189        -0.439388
 H         2.334464         1.080068        -1.637291
 H         4.190326        -0.860924        -0.724554
