19
Iteration:  1692
 C        -0.135808         0.080313        -0.104630
 C         1.342088         0.021814         0.216967
 C         1.950987         0.095588         1.584655
 C         3.526156        -0.138135         1.226977
 O         4.113815         1.110520         1.203880
 C         3.415135         1.909946         0.262487
 C         2.506210         0.884446        -0.587241
 C         3.264263        -0.507726        -0.298018
 O         2.010607        -1.226087        -0.307103
 H        -0.486747         1.053895        -0.098543
 H        -0.362399        -0.351462        -1.018517
 H        -0.647677        -0.441307         0.790100
 H         1.885457         1.239846         1.921791
 H         1.485182        -0.529008         2.296241
 H         4.118918        -0.743766         1.898352
 H         2.894344         2.785019         0.766967
 H         4.225364         2.481433        -0.429997
 H         2.145086         1.156510        -1.567939
 H         4.032405        -0.900978        -0.914574
