19
Iteration:  3799charge 0 multiplicity 1
 C        -0.146403         0.059607        -0.013859
 C         1.329953         0.066847         0.261877
 C         1.918757         0.000598         1.549574
 C         3.445800        -0.157587         1.212567
 O         4.061545         1.165031         1.242031
 C         3.478230         1.879678         0.156374
 C         2.571370         0.922073        -0.528656
 C         3.304124        -0.437605        -0.287428
 O         2.005668        -1.212790        -0.356675
 H        -0.236092         0.828757        -0.774188
 H        -0.469889        -0.852513        -0.580966
 H        -0.811367         0.319864         0.829362
 H         1.983494         0.956890         1.986200
 H         1.526908        -0.860315         2.195236
 H         4.023099        -0.900992         1.754266
 H         3.047428         2.814783         0.553443
 H         4.352668         2.139783        -0.467143
 H         2.171374         1.195368        -1.507379
 H         4.219567        -0.817211        -0.750561
