19
Iteration:  4258
 C        -0.078315         0.158224        -0.164243
 C         1.375711        -0.007878         0.344560
 C         1.985643         0.120819         1.757209
 C         3.444016        -0.122374         1.217724
 O         4.159077         1.203602         1.116974
 C         3.380919         1.862252         0.091462
 C         2.464249         0.842425        -0.589259
 C         3.225933        -0.510210        -0.323212
 O         2.020931        -1.276545        -0.199745
 H        -0.487519        -0.821093        -0.245489
 H        -0.813538         0.821027         0.366261
 H        -0.070297         0.529272        -1.144736
 H         1.827702         1.079062         2.282442
 H         1.614854        -0.751344         2.486246
 H         4.062029        -0.730190         1.899663
 H         2.889550         2.669107         0.652824
 H         4.096975         2.214138        -0.644761
 H         2.153865         0.971653        -1.691294
 H         3.978517        -0.872456        -1.035664
