19
Iteration:  4470
 C        -0.130428         0.146274        -0.082650
 C         1.392660         0.076409         0.219495
 C         1.936927         0.011726         1.701503
 C         3.465592        -0.032622         1.338007
 O         4.158733         1.238984         1.083564
 C         3.410330         1.912923        -0.050140
 C         2.563622         0.739049        -0.610388
 C         3.210147        -0.590262        -0.134209
 O         1.933375        -1.196832        -0.222578
 H        -0.771050         0.981320        -0.334013
 H        -0.094168        -0.516852        -0.873742
 H        -0.648491        -0.381452         0.783811
 H         1.698792         0.960295         2.377668
 H         1.710247        -0.957608         2.201968
 H         4.207832        -0.552748         2.010434
 H         2.964718         2.871363         0.301426
 H         4.309427         2.088510        -0.685564
 H         2.567453         0.741711        -1.738171
 H         4.098586        -1.001859        -0.790099
