19
Iteration:  3091charge 0 multiplicity 1
 C        -0.055962         0.298423        -0.076890
 C         1.419134        -0.012097         0.194372
 C         2.020894        -0.056166         1.589080
 C         3.517266        -0.137653         1.239845
 O         4.004078         1.211978         1.217857
 C         3.234889         1.891637         0.130737
 C         2.585817         0.783012        -0.611401
 C         3.313479        -0.528454        -0.230591
 O         2.003082        -1.261044        -0.264980
 H        -0.139698         1.429364        -0.111358
 H        -0.309700        -0.047366        -1.012426
 H        -0.651909         0.085799         0.822360
 H         1.916153         0.928705         1.975175
 H         1.420133        -0.908184         2.096385
 H         4.153554        -0.619436         2.061657
 H         2.607939         2.692241         0.639227
 H         3.937576         2.485261        -0.437974
 H         2.172483         1.015348        -1.633962
 H         4.060885        -1.085638        -0.858707
