19
Iteration:  2942
 C        -0.028532         0.305085        -0.144152
 C         1.412246         0.050349         0.243374
 C         2.031695        -0.021908         1.637209
 C         3.506804        -0.161776         1.230762
 O         4.015444         1.241194         1.181221
 C         3.267189         1.950942         0.177368
 C         2.504409         0.785024        -0.611633
 C         3.181156        -0.579437        -0.273064
 O         2.054991        -1.331142        -0.235907
 H        -0.044348         1.375965        -0.100189
 H        -0.173296        -0.113341        -1.184742
 H        -0.781266        -0.119347         0.560101
 H         1.917362         0.955556         2.210850
 H         1.627109        -0.834120         2.253776
 H         4.188387        -0.630737         2.003063
 H         2.668081         2.717003         0.645624
 H         4.090243         2.304202        -0.487465
 H         2.524414         0.869183        -1.633377
 H         4.059490        -0.966726        -0.901671
