19
Iteration:  4050charge 0 multiplicity 1
 C        -0.026174         0.312622        -0.078693
 C         1.394122        -0.003178         0.174847
 C         2.049321        -0.200628         1.744921
 C         3.497575        -0.157770         1.176238
 O         3.967741         1.251210         1.231985
 C         3.310777         1.922333         0.164620
 C         2.562205         0.811352        -0.586984
 C         3.300028        -0.484385        -0.333210
 O         1.967633        -1.231404        -0.283911
 H        -0.018765         1.379759        -0.357402
 H        -0.468208        -0.148510        -1.030665
 H        -0.652246         0.194598         0.791965
 H         1.900837         0.608132         2.423470
 H         1.558379        -1.068023         2.282900
 H         4.293524        -0.739749         1.603777
 H         2.585301         2.668897         0.579232
 H         4.090524         2.357627        -0.468856
 H         2.200443         1.002189        -1.674679
 H         4.193470        -0.914992        -0.849928
