19
Iteration:  1184
 C        -0.100124        -0.008619        -0.069881
 C         1.391504         0.119389         0.216407
 C         1.874072         0.023056         1.613748
 C         3.481483        -0.130229         1.303500
 O         4.180076         1.209582         1.175570
 C         3.514242         1.906959         0.123475
 C         2.577743         0.899474        -0.577663
 C         3.215896        -0.537524        -0.234528
 O         1.896985        -1.173807        -0.293355
 H        -0.904956         0.456682         0.512463
 H        -0.376468         0.219384        -1.258237
 H        -0.367059        -1.010178        -0.161554
 H         1.726839         0.919060         2.125596
 H         1.256951        -0.767256         2.203305
 H         4.204087        -0.653986         2.096740
 H         2.996882         2.694938         0.754223
 H         4.226584         2.325242        -0.660143
 H         2.378674         1.067757        -1.597397
 H         3.877940        -1.025082        -1.020102
