19
Iteration:  3742charge 0 multiplicity 1
 C        -0.052995         0.242185        -0.093408
 C         1.423554         0.086661         0.160639
 C         2.014628        -0.036800         1.655864
 C         3.518484        -0.152885         1.244547
 O         4.064215         1.171836         1.227791
 C         3.208602         1.898799         0.262599
 C         2.602682         0.810941        -0.592079
 C         3.250467        -0.532235        -0.345351
 O         1.993239        -1.204459        -0.343328
 H        -0.306764        -0.014459        -1.186790
 H        -0.522534        -0.426875         0.644639
 H        -0.329523         1.346525         0.134207
 H         1.822217         0.751030         2.378484
 H         1.598559        -0.920609         2.272356
 H         4.204603        -1.005411         1.657053
 H         2.417721         2.486719         0.815822
 H         3.889237         2.630888        -0.189524
 H         2.317184         0.969555        -1.648773
 H         4.113658        -1.031310        -0.938194
