19
Iteration:   202
 C        -0.111175         0.028379        -0.099060
 C         1.391409         0.010481         0.190015
 C         2.021623        -0.434150         1.520981
 C         3.482826        -0.381646         1.039408
 O         4.155350         0.881589         1.418583
 C         3.281224         1.921476         0.824414
 C         2.491945         1.184553        -0.241010
 C         3.237401        -0.091535        -0.578761
 O         2.089095        -0.831043        -0.816066
 H        -0.735771        -0.115615         0.797703
 H        -0.526101         0.867397        -0.644503
 H        -0.409322        -0.829864        -0.713289
 H         1.757766         0.243489         2.309922
 H         1.595182        -1.397451         1.799166
 H         4.268560        -1.085819         1.231850
 H         2.546933         2.516290         1.474959
 H         3.887137         2.656342         0.355296
 H         1.952511         1.785342        -1.106106
 H         3.927022        -0.231584        -1.417899
