19
Iteration:  2185
 C        -0.058184         0.052768        -0.150414
 C         1.337117         0.046911         0.255324
 C         1.873883         0.106000         1.673752
 C         3.505286        -0.084952         1.247538
 O         4.229734         1.118164         1.239377
 C         3.383268         1.898558         0.171129
 C         2.477669         0.856344        -0.562392
 C         3.245554        -0.505897        -0.293876
 O         1.956166        -1.171846        -0.354824
 H        -0.428033         0.895567        -0.557302
 H        -0.205483        -0.847758        -0.809114
 H        -0.559895        -0.097337         0.765973
 H         1.787248         1.070403         2.154730
 H         1.535001        -0.684327         2.303143
 H         4.050673        -0.824326         1.879808
 H         2.879977         2.708828         0.778533
 H         4.179069         2.295427        -0.510246
 H         2.372431         0.959533        -1.658290
 H         3.947599        -0.988022        -0.984326
