19
Iteration:  4593
 C        -0.113531         0.003259        -0.088236
 C         1.408152         0.020767         0.298551
 C         1.974900         0.230051         1.667935
 C         3.441949        -0.125945         1.173311
 O         4.130886         1.243895         1.160961
 C         3.547840         1.853347         0.019858
 C         2.486680         0.751235        -0.656364
 C         3.216909        -0.489124        -0.232819
 O         1.922202        -1.248859        -0.106267
 H        -0.802475         0.040961         0.659130
 H        -0.278211         0.946097        -0.653566
 H        -0.344421        -0.804167        -0.755432
 H         2.000739         1.280762         1.920522
 H         1.414458        -0.422703         2.366586
 H         3.898543        -0.628439         1.931488
 H         3.185314         2.834788         0.331589
 H         4.342061         2.129463        -0.691375
 H         2.014489         0.843145        -1.639643
 H         3.873232        -1.002112        -0.914550
