19
Iteration:   761charge 0 multiplicity 1
 C        -0.022475         0.373983         0.006651
 C         1.456187        -0.010884         0.186105
 C         1.987953        -0.275063         1.510789
 C         3.534359        -0.174409         1.158388
 O         3.909335         1.180900         1.368313
 C         3.244386         1.914902         0.343140
 C         2.531218         0.854878        -0.537850
 C         3.347685        -0.464300        -0.333946
 O         2.057174        -1.180536        -0.526340
 H        -0.119697         0.984737        -0.874223
 H        -0.772687        -0.459533         0.078742
 H        -0.332023         1.000740         0.811781
 H         1.771275         0.636584         2.234232
 H         1.703711        -1.203202         2.026249
 H         4.152201        -0.864240         1.684470
 H         2.548949         2.549889         0.914814
 H         3.973547         2.511631        -0.263420
 H         2.153047         1.001213        -1.509149
 H         4.212479        -0.732849        -0.971956
