19
Iteration:  2451
 C         0.023001         0.308281         0.022284
 C         1.459793        -0.016994         0.172967
 C         1.963600        -0.050719         1.641355
 C         3.393666        -0.105535         1.285273
 O         3.956899         1.268373         1.164551
 C         3.339348         1.902431         0.070564
 C         2.621666         0.759270        -0.599831
 C         3.257901        -0.611416        -0.218286
 O         2.004813        -1.224908        -0.344324
 H        -0.042825         1.269014         0.528476
 H        -0.385898         0.251365        -0.939987
 H        -0.505148        -0.449307         0.628437
 H         1.823452         0.840853         2.212083
 H         1.602939        -0.993549         2.031486
 H         4.113132        -0.550916         1.999386
 H         2.693315         2.658222         0.380433
 H         4.038773         2.429325        -0.577092
 H         2.210241         0.971007        -1.631451
 H         4.061329        -1.282576        -0.644191
