19
Iteration:  1545
 C        -0.042500         0.197383        -0.092915
 C         1.379484         0.010871         0.178582
 C         1.959683         0.013771         1.682149
 C         3.542840        -0.104880         1.246845
 O         4.077183         1.175084         1.193894
 C         3.340619         1.886015         0.168757
 C         2.526086         0.828269        -0.587318
 C         3.222850        -0.497277        -0.210952
 O         1.984352        -1.254963        -0.338187
 H        -0.435293         1.223695         0.095278
 H        -0.179676        -0.028131        -1.181131
 H        -0.613077        -0.409500         0.466191
 H         1.941116         1.019163         1.936430
 H         1.411167        -0.691059         2.434784
 H         4.225969        -0.790848         1.750444
 H         2.763157         2.677399         0.749729
 H         4.135248         2.307556        -0.530691
 H         2.248532         0.998703        -1.706972
 H         4.075673        -0.979161        -0.718623
