19
Iteration:  3944
 C        -0.157447         0.054465        -0.074084
 C         1.309163         0.013101         0.209132
 C         1.955927         0.015867         1.679440
 C         3.488846        -0.141989         1.252816
 O         4.131341         1.185825         1.205525
 C         3.513103         1.860382         0.110476
 C         2.478250         0.951857        -0.540066
 C         3.213609        -0.438120        -0.247672
 O         2.002398        -1.222484        -0.346649
 H        -0.719730         0.434120         0.804754
 H        -0.187920         0.571233        -1.104722
 H        -0.333879        -1.007408        -0.279275
 H         1.799548         1.135578         2.125925
 H         1.533295        -0.778314         2.351605
 H         4.059305        -0.774021         2.015403
 H         3.198306         2.875192         0.433491
 H         4.284233         1.969936        -0.722159
 H         2.191178         1.260401        -1.605433
 H         4.122980        -0.823452        -0.832791
