19
Iteration:  2119charge 0 multiplicity 1
 C         0.049492         0.358985        -0.010287
 C         1.457497        -0.009153         0.186536
 C         1.974336        -0.090704         1.605861
 C         3.481956        -0.053583         1.238834
 O         4.007250         1.248946         1.192505
 C         3.248146         1.940295         0.158897
 C         2.581812         0.720316        -0.594480
 C         3.267741        -0.568448        -0.197226
 O         1.953832        -1.288703        -0.377559
 H        -0.102831         1.325908         0.240893
 H        -0.278566         0.209158        -1.075550
 H        -0.598097        -0.204217         0.600598
 H         1.713981         0.682342         2.297330
 H         1.705622        -1.033141         1.965869
 H         4.039725        -0.617527         2.041542
 H         2.493214         2.667294         0.545398
 H         4.040978         2.371694        -0.424655
 H         2.450130         0.843182        -1.656391
 H         4.131252        -1.119475        -0.628196
