19
Iteration:  1936charge 0 multiplicity 1
 C         0.033252         0.486499        -0.130402
 C         1.435877        -0.055440         0.216300
 C         1.997060        -0.056487         1.676079
 C         3.604403        -0.117850         1.188468
 O         3.955743         1.269987         1.205272
 C         3.128513         1.841355         0.207887
 C         2.540138         0.682781        -0.546929
 C         3.315412        -0.529080        -0.257344
 O         2.009559        -1.323213        -0.358402
 H         0.147882         1.630027        -0.142598
 H        -0.492557         0.086747        -1.061214
 H        -0.522414         0.218263         0.700857
 H         1.923323         0.811032         2.341951
 H         1.734534        -0.983653         2.400669
 H         4.310226        -0.710503         1.755253
 H         2.348386         2.339888         0.756324
 H         3.817852         2.432192        -0.436292
 H         2.250823         0.956253        -1.528790
 H         4.085728        -0.893942        -0.979988
