19
Iteration:  1038
 C        -0.116187        -0.004607        -0.058172
 C         1.355240         0.123321         0.186330
 C         1.951644         0.031233         1.607305
 C         3.416460        -0.165816         1.303931
 O         4.087683         1.084824         1.199441
 C         3.482398         1.970679         0.154537
 C         2.607021         0.925313        -0.549913
 C         3.223622        -0.481316        -0.205562
 O         1.989948        -1.167745        -0.386444
 H        -0.506400         0.792021        -0.741525
 H        -0.274522        -0.924997        -0.598914
 H        -0.657575         0.138123         0.905853
 H         1.700035         0.943811         2.168896
 H         1.430460        -0.769104         2.050368
 H         4.052840        -0.817724         1.797639
 H         2.913122         2.719587         0.723824
 H         4.301315         2.424178        -0.499735
 H         2.445181         0.969399        -1.680454
 H         4.018504        -0.869649        -0.787794
