19
Iteration:  1608
 C        -0.013647         0.387385         0.041571
 C         1.463294        -0.017195         0.208996
 C         1.992415        -0.053136         1.619648
 C         3.448917        -0.079016         1.212487
 O         3.854646         1.297516         1.274458
 C         3.324823         1.844056         0.053108
 C         2.588205         0.703282        -0.567676
 C         3.296573        -0.620412        -0.258509
 O         2.063425        -1.278140        -0.372835
 H        -0.230534         0.939865         0.968379
 H        -0.121250         1.106868        -0.883964
 H        -0.760236        -0.449420        -0.180528
 H         1.863677         0.829914         2.224241
 H         1.529672        -0.849965         2.221724
 H         4.191666        -0.595897         1.816717
 H         2.811399         2.786252         0.269234
 H         4.016141         2.077213        -0.689082
 H         2.387365         1.040180        -1.544937
 H         4.118361        -1.116644        -0.735260
