19
Iteration:  3443
 C        -0.076150         0.144224        -0.019234
 C         1.394739         0.137216         0.095965
 C         1.983735         0.085331         1.615646
 C         3.425612        -0.091051         1.304873
 O         4.126520         1.214303         1.128151
 C         3.336482         1.883730         0.162550
 C         2.597323         0.780692        -0.582186
 C         3.286699        -0.664169        -0.129756
 O         1.942975        -1.242753        -0.370970
 H        -0.639117         0.458127         0.879938
 H        -0.422330         0.984402        -0.765324
 H        -0.481811        -0.845334        -0.414539
 H         1.756740         1.123754         2.173319
 H         1.557038        -0.827060         2.040136
 H         4.029803        -0.769573         2.003242
 H         2.685444         2.606172         0.742960
 H         4.013866         2.530227        -0.394803
 H         2.532102         1.169752        -1.647572
 H         4.183834        -1.225743        -0.505245
