19
Iteration:  1166charge 0 multiplicity 1
 C        -0.133338         0.060582        -0.107890
 C         1.362789         0.067512         0.202203
 C         1.999958         0.072975         1.698996
 C         3.380444        -0.082764         1.223950
 O         4.091120         1.122455         1.221117
 C         3.452356         1.903623         0.083290
 C         2.643918         0.855923        -0.590517
 C         3.250050        -0.511301        -0.216008
 O         1.935636        -1.155011        -0.309377
 H        -0.634563         0.480440         0.747454
 H        -0.353094         0.419741        -1.026928
 H        -0.336247        -1.082822        -0.168859
 H         1.749659         0.917228         2.481721
 H         1.681560        -0.930701         2.187571
 H         4.071324        -0.719641         1.698316
 H         2.878910         2.847100         0.325030
 H         4.282264         2.212665        -0.531835
 H         2.330347         0.967695        -1.637710
 H         4.131620        -0.921117        -0.582921
