19
Iteration:  1765
 C         0.054579         0.455077         0.017251
 C         1.478365        -0.017823         0.199091
 C         2.004329        -0.152493         1.614913
 C         3.513283        -0.075304         1.229038
 O         3.858747         1.214449         1.257868
 C         3.244674         1.877405         0.119967
 C         2.500243         0.743674        -0.622499
 C         3.339589        -0.538811        -0.311436
 O         2.059135        -1.309643        -0.295985
 H         0.226012         1.587976        -0.050575
 H        -0.264647         0.244555        -1.006956
 H        -0.753907         0.242945         0.817922
 H         1.761666         0.747376         2.203270
 H         1.552544        -1.058677         2.038854
 H         4.240773        -0.633084         1.783731
 H         2.572764         2.630888         0.491797
 H         3.882256         2.429026        -0.447682
 H         2.101651         0.982638        -1.710691
 H         4.079254        -1.097168        -0.855380
