19
Iteration:  2099charge 0 multiplicity 1
 C        -0.026434         0.489733        -0.076740
 C         1.431976         0.009808         0.175712
 C         1.992471        -0.106144         1.677603
 C         3.524732        -0.183989         1.261857
 O         3.951357         1.252885         1.191811
 C         3.191123         1.892073         0.104342
 C         2.551579         0.762905        -0.631922
 C         3.328285        -0.573097        -0.272887
 O         2.097017        -1.328751        -0.235628
 H        -0.162826         1.404109         0.632199
 H        -0.205711         0.840409        -1.161582
 H        -0.771469        -0.225866         0.152399
 H         1.848844         0.740176         2.280101
 H         1.561909        -1.003391         2.185199
 H         4.174019        -0.847644         1.866767
 H         2.312034         2.374318         0.605098
 H         3.776701         2.541989        -0.475140
 H         2.377150         0.963275        -1.736629
 H         4.100485        -1.012514        -0.894016
