19
Iteration:  3376
 C        -0.061365         0.303595        -0.114863
 C         1.461501         0.022911         0.268037
 C         1.977626        -0.064953         1.701308
 C         3.477837        -0.067007         1.321941
 O         4.014578         1.274903         1.141973
 C         3.355080         1.813998         0.033096
 C         2.601820         0.696098        -0.625268
 C         3.282768        -0.519072        -0.183601
 O         1.928346        -1.223889        -0.292002
 H        -0.893688        -0.244369         0.368350
 H        -0.182274         1.360482         0.175708
 H        -0.003265         0.259201        -1.246000
 H         1.759261         0.769495         2.432125
 H         1.663535        -1.067998         2.072119
 H         4.265382        -0.638665         1.812025
 H         2.562516         2.543141         0.327045
 H         3.992293         2.348799        -0.661632
 H         2.153996         0.786049        -1.549310
 H         4.157325        -1.095528        -0.528669
