19
Iteration:  1169charge 0 multiplicity 1
 C        -0.134933         0.015267        -0.121852
 C         1.354726         0.090643         0.207072
 C         1.967704         0.055145         1.704884
 C         3.412153        -0.095999         1.236105
 O         4.099749         1.142211         1.198558
 C         3.481650         1.930472         0.099978
 C         2.640001         0.844624        -0.571469
 C         3.213430        -0.522379        -0.229150
 O         1.936646        -1.140718        -0.304009
 H        -0.614722         0.505428         0.777194
 H        -0.377893         0.518899        -1.111375
 H        -0.312390        -1.121489        -0.104430
 H         1.765467         0.887256         2.417447
 H         1.680291        -0.820890         2.141183
 H         4.028059        -0.775493         1.798729
 H         2.939680         2.804064         0.302945
 H         4.319508         2.299803        -0.496271
 H         2.340304         0.959742        -1.671596
 H         4.136045        -1.025977        -0.665001
