19
Iteration:  1729
 C        -0.057133         0.297358         0.028962
 C         1.492560         0.031692         0.208664
 C         1.982780        -0.186436         1.617703
 C         3.524038        -0.050991         1.306606
 O         3.927691         1.236997         1.213760
 C         3.352233         1.900947         0.078246
 C         2.567767         0.782881        -0.601501
 C         3.318311        -0.578139        -0.214100
 O         1.954093        -1.160929        -0.418220
 H        -0.187021         1.431908        -0.271658
 H        -0.508665        -0.428723        -0.836681
 H        -0.669219         0.110041         0.870281
 H         1.725637         0.523016         2.333518
 H         1.564157        -1.214279         1.969568
 H         4.251967        -0.518225         2.021037
 H         2.675709         2.627883         0.513049
 H         4.239025         2.271230        -0.422662
 H         2.195903         0.830631        -1.620969
 H         4.141757        -1.150466        -0.774870
