19
Iteration:  1248charge 0 multiplicity 1
 C         0.022601         0.391834        -0.034156
 C         1.456617        -0.014814         0.139387
 C         2.037704        -0.087352         1.632313
 C         3.502506        -0.065791         1.265140
 O         4.000708         1.285461         1.183556
 C         3.221099         1.881557         0.199597
 C         2.548873         0.739372        -0.628490
 C         3.228334        -0.640959        -0.222616
 O         1.980438        -1.258821        -0.306962
 H         0.052985         1.503468        -0.296218
 H        -0.383552        -0.021221        -1.120433
 H        -0.546263         0.153860         0.824160
 H         1.827804         0.568405         2.391095
 H         1.804530        -1.075003         1.856410
 H         4.183223        -0.614913         2.048803
 H         2.411294         2.330305         0.684195
 H         3.842860         2.597244        -0.402195
 H         2.507723         0.810331        -1.721700
 H         4.091639        -1.062758        -0.895404
