19
Iteration:  3325
 C        -0.140526         0.156822        -0.063767
 C         1.434280        -0.012835         0.142702
 C         1.959820         0.185756         1.608568
 C         3.401353        -0.029947         1.255889
 O         4.121213         1.119678         1.187044
 C         3.319425         1.861615         0.121335
 C         2.572566         0.759215        -0.636891
 C         3.277173        -0.585001        -0.198340
 O         2.014371        -1.215169        -0.210630
 H        -0.702180        -0.735525        -0.333958
 H        -0.408988         0.692137         0.929873
 H        -0.346826         0.778901        -0.927381
 H         1.985442         1.339834         1.805940
 H         1.848662        -0.554047         2.368804
 H         3.998749        -0.692695         1.951364
 H         2.724946         2.674417         0.635445
 H         3.942289         2.413744        -0.598687
 H         2.589616         0.769549        -1.807101
 H         4.016553        -1.128245        -0.790130
