19
Iteration:  3256charge 0 multiplicity 1
 C        -0.076577         0.288465        -0.087115
 C         1.407266         0.097509         0.228841
 C         1.980045         0.038714         1.679609
 C         3.452861        -0.041312         1.229416
 O         3.993926         1.275217         1.205367
 C         3.353349         1.845642         0.029791
 C         2.589669         0.656214        -0.565899
 C         3.272227        -0.623235        -0.242337
 O         2.037691        -1.302173        -0.243532
 H        -0.536481        -0.657595        -0.177960
 H        -0.372789         0.833843         0.756253
 H        -0.224700         0.869912        -1.021869
 H         1.868502         1.083577         1.989822
 H         1.421948        -0.672022         2.322464
 H         3.996416        -0.686416         1.881808
 H         2.762392         2.745518         0.213866
 H         4.055947         2.112364        -0.702555
 H         2.322569         0.739156        -1.548598
 H         4.160768        -1.020798        -0.757778
