19
Iteration:   998
 C        -0.166013         0.143683        -0.041768
 C         1.422380         0.097844         0.153717
 C         1.958585         0.033337         1.556730
 C         3.505761        -0.193963         1.241699
 O         4.054562         1.121648         1.256087
 C         3.387878         1.926677         0.177978
 C         2.536361         0.878955        -0.514866
 C         3.239167        -0.496499        -0.227896
 O         2.051825        -1.210018        -0.411760
 H        -0.393668         0.611112        -1.005052
 H        -0.496200        -0.923264         0.146428
 H        -0.639116         0.640444         0.746640
 H         1.868867         0.933177         2.147733
 H         1.500047        -0.875663         2.200775
 H         3.969825        -0.803311         1.995607
 H         2.748593         2.716453         0.622672
 H         4.188950         2.321287        -0.441723
 H         2.530032         0.959617        -1.581747
 H         4.119090        -0.783167        -0.883926
