19
Iteration:  1807
 C        -0.117446         0.191699        -0.085298
 C         1.424061         0.007679         0.218758
 C         1.970770         0.037645         1.625822
 C         3.532931        -0.054473         1.319919
 O         4.151210         1.170561         1.120868
 C         3.255527         1.887664         0.199167
 C         2.601206         0.807006        -0.599690
 C         3.258480        -0.595259        -0.228146
 O         1.936222        -1.194613        -0.353626
 H        -0.663444         0.999807         0.537256
 H        -0.137955         0.464719        -1.174115
 H        -0.579749        -0.758124         0.123248
 H         1.630691         0.847231         2.167543
 H         1.780323        -0.963660         2.114139
 H         4.111036        -0.602871         2.050168
 H         2.584776         2.559361         0.809438
 H         3.973420         2.573559        -0.304202
 H         2.404603         1.057990        -1.684746
 H         4.100175        -1.114459        -0.718200
