19
Iteration:  1464
 C        -0.000184         0.288335         0.006982
 C         1.454520         0.001285         0.171254
 C         1.955059        -0.032529         1.625485
 C         3.450453        -0.172470         1.242379
 O         3.953748         1.226116         1.226236
 C         3.316467         1.874836         0.073772
 C         2.569118         0.842656        -0.582150
 C         3.240135        -0.513481        -0.250141
 O         2.063119        -1.262731        -0.325483
 H         0.014893         1.365270        -0.238039
 H        -0.420964        -0.306684        -0.831286
 H        -0.529691         0.064114         1.018691
 H         1.698119         0.830592         2.389083
 H         1.485241        -0.879316         2.111834
 H         4.084955        -0.878221         1.831457
 H         2.751222         2.766951         0.510501
 H         4.038245         2.184086        -0.655900
 H         2.386994         1.035384        -1.605448
 H         4.099534        -0.998699        -0.787870
