19
Iteration:  4799
 C        -0.078568         0.171727        -0.137189
 C         1.355245         0.062637         0.300561
 C         1.924341         0.188166         1.675799
 C         3.487699        -0.027405         1.375821
 O         4.197757         1.240990         0.954080
 C         3.366118         1.872213        -0.065647
 C         2.579984         0.603381        -0.691495
 C         3.237370        -0.612964        -0.117131
 O         1.933876        -1.237249        -0.050657
 H        -0.089087        -0.019720        -1.194967
 H        -0.749256        -0.650780         0.383836
 H        -0.625540         1.137135         0.075858
 H         1.789879         1.160233         2.152957
 H         1.589589        -0.589375         2.409924
 H         4.094037        -0.572615         1.968797
 H         2.893249         2.757014         0.357947
 H         4.025285         2.297188        -0.804693
 H         2.234894         0.618914        -1.734084
 H         3.974777        -1.227160        -0.548116
