19
Iteration:  4174
 C        -0.001182         0.370499        -0.053075
 C         1.444967         0.010346         0.216046
 C         1.998676        -0.102934         1.625808
 C         3.520379        -0.066317         1.275824
 O         4.053535         1.257489         1.189096
 C         3.230878         1.860212         0.097723
 C         2.528594         0.758378        -0.592443
 C         3.253358        -0.552665        -0.244894
 O         2.007685        -1.310058        -0.297628
 H        -0.544682         0.662274         0.925412
 H        -0.113051         1.311063        -0.580753
 H        -0.547461        -0.491848        -0.539478
 H         1.779521         0.693228         2.332955
 H         1.635621        -0.997214         2.039243
 H         4.197223        -0.639886         1.912525
 H         2.518543         2.641681         0.475777
 H         3.906578         2.370426        -0.623481
 H         2.217616         0.908538        -1.577014
 H         3.972546        -0.889120        -0.920529
