19
Iteration:  2684
 C        -0.044717         0.009938         0.010664
 C         1.428479         0.099049         0.173286
 C         1.866423         0.144194         1.568878
 C         3.453372        -0.049607         1.293737
 O         4.139958         1.127759         1.122249
 C         3.416842         1.935477         0.176774
 C         2.585485         0.838276        -0.604370
 C         3.244449        -0.578075        -0.276447
 O         1.945668        -1.217033        -0.257133
 H        -0.555559         0.693317         0.673739
 H        -0.321907         0.218881        -1.083492
 H        -0.521316        -0.946754         0.078637
 H         1.683403         1.079722         2.194278
 H         1.333379        -0.679807         1.971879
 H         4.003274        -0.662291         2.061513
 H         2.784108         2.683328         0.751416
 H         4.159236         2.504441        -0.367424
 H         2.444538         0.995539        -1.730000
 H         3.927790        -1.185182        -0.896529
