19
Iteration:  3777
 C        -0.092095         0.106684        -0.024375
 C         1.406161         0.035613         0.097407
 C         1.904903         0.042521         1.678241
 C         3.397681        -0.090872         1.317231
 O         4.150024         1.092518         1.228602
 C         3.407934         1.902516         0.184976
 C         2.533991         0.878622        -0.574451
 C         3.219867        -0.462374        -0.277048
 O         2.022180        -1.164421        -0.426701
 H        -0.701455         0.495651        -0.845394
 H        -0.379960        -0.980677        -0.031329
 H        -0.470106         0.472190         0.968845
 H         1.654606         0.990469         2.108440
 H         1.691066        -1.013056         2.122100
 H         4.154491        -0.842429         1.683496
 H         2.907890         2.723268         0.742215
 H         4.221836         2.311326        -0.449649
 H         2.354215         1.004930        -1.660483
 H         4.178349        -0.896571        -0.689303
