19
Iteration:  4556
 C         0.000254         0.277570        -0.084924
 C         1.404982         0.035852         0.271919
 C         1.964443         0.036261         1.662881
 C         3.477730        -0.007586         1.328565
 O         4.116851         1.270634         0.985625
 C         3.294212         1.912678        -0.007298
 C         2.582665         0.663728        -0.658034
 C         3.280869        -0.652367        -0.081006
 O         1.911227        -1.288620        -0.194106
 H        -0.510449         0.632508         0.875288
 H        -0.081745         1.071447        -0.780670
 H        -0.527351        -0.629769        -0.473331
 H         1.688876         0.876332         2.407820
 H         1.565367        -0.867260         2.164588
 H         4.124438        -0.555839         2.089438
 H         2.420937         2.552420         0.303732
 H         4.071382         2.439903        -0.570259
 H         2.190147         0.636695        -1.716079
 H         4.255574        -1.000596        -0.545731
