19
Iteration:  1013charge 0 multiplicity 1
 C        -0.137673         0.021820         0.001289
 C         1.332502         0.095281         0.172256
 C         1.914156         0.015375         1.608463
 C         3.395271        -0.072538         1.277478
 O         4.144971         1.171855         1.264384
 C         3.474682         1.866309         0.238055
 C         2.658586         0.849873        -0.618855
 C         3.292499        -0.493031        -0.291026
 O         1.949249        -1.153635        -0.424632
 H        -0.547172         0.502552        -0.903849
 H        -0.315929        -0.983757        -0.366910
 H        -0.757697         0.477899         0.909059
 H         1.642613         0.932056         2.157918
 H         1.492715        -0.786091         2.046143
 H         4.108788        -0.856116         1.775938
 H         2.897567         2.664002         0.701865
 H         4.198249         2.316940        -0.466287
 H         2.230288         1.180060        -1.570327
 H         4.093149        -1.068436        -0.764781
