19
Iteration:  4958
 C        -0.261754         0.162438        -0.035981
 C         1.476162         0.074991         0.213609
 C         1.980732         0.287668         1.606576
 C         3.444976        -0.036961         1.334778
 O         4.188806         1.224526         0.974667
 C         3.321399         1.810473        -0.009062
 C         2.574287         0.677509        -0.647404
 C         3.298428        -0.642630        -0.091766
 O         1.990324        -1.300740        -0.118847
 H        -0.569157        -0.666680        -0.620993
 H        -0.760250         0.208204         0.846233
 H        -0.436018         1.091983        -0.645054
 H         1.785264         1.232243         2.213685
 H         1.572199        -0.483678         2.186955
 H         4.140209        -0.526966         2.086429
 H         2.645533         2.593370         0.351164
 H         3.932920         2.367488        -0.755913
 H         2.354571         0.520164        -1.707048
 H         4.170945        -1.058580        -0.490261
