19
Iteration:  1378charge 0 multiplicity 1
 C        -0.121418         0.180931        -0.166802
 C         1.403507         0.006323         0.149722
 C         1.988897         0.116121         1.595659
 C         3.523805        -0.127390         1.224415
 O         4.143255         1.142327         1.168835
 C         3.328865         1.904520         0.220049
 C         2.473773         0.822812        -0.564514
 C         3.289474        -0.516005        -0.231646
 O         1.979654        -1.262133        -0.220996
 H        -0.603863         0.558618         0.722184
 H        -0.549828         0.744166        -1.016801
 H        -0.563925        -0.731095        -0.293164
 H         1.908569         1.137642         2.179583
 H         1.826449        -0.649982         2.353405
 H         4.051911        -0.749197         2.027797
 H         2.895873         2.771463         0.772269
 H         3.876645         2.428042        -0.558976
 H         2.256960         0.954975        -1.586510
 H         4.002173        -1.136518        -0.880894
