19
Iteration:  3624charge 0 multiplicity 1
 C        -0.104700         0.078849        -0.116220
 C         1.406242         0.047540         0.178317
 C         1.889156         0.023361         1.631451
 C         3.421105        -0.187620         1.262504
 O         4.238921         1.192427         1.168320
 C         3.397640         1.909560         0.226504
 C         2.500257         0.866501        -0.487829
 C         3.243427        -0.460206        -0.234072
 O         1.975900        -1.201488        -0.377982
 H        -0.224185         0.353204        -1.152410
 H        -0.410164        -0.910826         0.046786
 H        -0.617000         0.856745         0.450906
 H         1.597433         0.934591         2.146680
 H         1.312796        -0.866949         2.172355
 H         4.202319        -0.744179         1.929432
 H         2.989619         2.786527         0.745713
 H         4.106087         2.311691        -0.563679
 H         2.193896         1.175557        -1.511407
 H         4.085315        -1.023370        -0.831046
