19
Iteration:  1584charge 0 multiplicity 1
 C        -0.010642         0.407854         0.074595
 C         1.515216         0.043090         0.182418
 C         1.959900        -0.194737         1.640196
 C         3.438316        -0.112118         1.329764
 O         3.862485         1.266114         1.216269
 C         3.391054         1.883651         0.003861
 C         2.586999         0.720380        -0.717811
 C         3.294333        -0.523147        -0.192259
 O         2.012787        -1.237790        -0.323817
 H        -0.302656         1.008348         0.905799
 H        -0.298535         0.810801        -0.928589
 H        -0.468614        -0.716808        -0.025327
 H         1.569934         0.565002         2.409720
 H         1.441488        -1.031594         1.931451
 H         4.291667        -0.580504         1.797991
 H         2.758202         2.689582         0.330857
 H         4.117322         2.426754        -0.575829
 H         2.382149         0.753377        -1.712282
 H         4.105782        -1.013715        -0.654395
