19
Iteration:  1106
 C         0.044770         0.409617        -0.074189
 C         1.497802         0.055470         0.167722
 C         1.995388        -0.099025         1.664166
 C         3.514000        -0.119349         1.325987
 O         3.992950         1.221060         1.178813
 C         3.126526         1.844867         0.139939
 C         2.607621         0.676452        -0.648699
 C         3.256359        -0.552691        -0.216376
 O         2.024912        -1.219843        -0.312225
 H        -0.208102         1.463347         0.124548
 H        -0.352057         0.436976        -1.170824
 H        -0.656777        -0.000690         0.526442
 H         1.776114         0.608547         2.399649
 H         1.582946        -1.137561         1.865906
 H         4.313107        -0.613890         1.933446
 H         2.226367         2.307616         0.652558
 H         3.808387         2.624386        -0.341701
 H         2.292146         0.720594        -1.699245
 H         4.132602        -0.953046        -0.851109
