19
Iteration:   656
 C        -0.088459         0.259064        -0.097286
 C         1.456828         0.003752         0.141107
 C         2.048574        -0.245013         1.620503
 C         3.575073        -0.198633         1.195199
 O         4.098501         1.082108         1.281561
 C         3.205330         1.923929         0.517142
 C         2.499985         0.939232        -0.544442
 C         3.226058        -0.362992        -0.368552
 O         2.005766        -1.112687        -0.549811
 H        -0.600326        -0.352246         0.634362
 H        -0.331209         1.312732         0.009503
 H        -0.157726        -0.018612        -1.242518
 H         1.777214         0.448305         2.370139
 H         1.719001        -1.185510         1.897697
 H         4.160881        -1.007457         1.756955
 H         2.401968         2.423832         1.168722
 H         3.789417         2.762660         0.179952
 H         2.157269         1.172169        -1.538140
 H         4.045642        -0.834126        -0.909318
