19
Iteration:  3416
 C        -0.022692         0.257789        -0.012542
 C         1.388131         0.025710         0.203292
 C         1.930572         0.032375         1.631732
 C         3.479788        -0.104306         1.235844
 O         3.975477         1.189462         1.209983
 C         3.375992         1.830112         0.072800
 C         2.556331         0.769552        -0.664930
 C         3.360538        -0.515341        -0.226862
 O         1.984474        -1.256761        -0.246229
 H        -0.722216         0.274502         0.833856
 H        -0.036238         1.164003        -0.540319
 H        -0.532919        -0.438443        -0.649056
 H         1.740590         0.964612         2.007934
 H         1.421835        -0.722308         2.236489
 H         4.089802        -0.733289         1.839526
 H         2.743352         2.587782         0.524725
 H         4.222662         2.381915        -0.416658
 H         2.406938         1.007975        -1.712101
 H         4.188047        -0.902703        -0.806487
