19
Iteration:  2371charge 0 multiplicity 1
 C        -0.168082         0.154662        -0.109592
 C         1.376827         0.060894         0.178845
 C         2.000462         0.101317         1.691313
 C         3.486749        -0.112451         1.226612
 O         4.138283         1.164866         1.121626
 C         3.265142         1.879501         0.238996
 C         2.611960         0.827975        -0.644390
 C         3.259632        -0.593480        -0.221504
 O         2.022525        -1.213375        -0.275334
 H        -0.362715         1.276053         0.014152
 H        -0.371271        -0.083090        -1.179384
 H        -0.723735        -0.346919         0.641700
 H         1.724724         0.801938         2.414821
 H         1.635541        -0.880719         2.173469
 H         4.106989        -0.680364         1.914912
 H         2.609181         2.476832         0.777694
 H         4.024161         2.416536        -0.386957
 H         2.537655         1.125836        -1.777547
 H         3.964877        -1.088757        -0.851648
