19
Iteration:  3681charge 0 multiplicity 1
 C        -0.022713         0.275834         0.001248
 C         1.445328         0.044326         0.148834
 C         2.049293        -0.125163         1.581716
 C         3.481624        -0.143287         1.284824
 O         3.987959         1.171580         1.216963
 C         3.270499         1.947845         0.231911
 C         2.587210         0.767562        -0.578738
 C         3.265905        -0.476594        -0.222340
 O         1.981580        -1.194849        -0.403063
 H        -0.422850        -0.300692        -0.774205
 H        -0.710847         0.178192         0.846446
 H        -0.126589         1.278004        -0.335412
 H         1.657372         0.649441         2.231706
 H         1.787813        -1.190650         1.719934
 H         4.079238        -0.794599         1.947481
 H         2.574680         2.729308         0.588863
 H         4.002699         2.485622        -0.424406
 H         2.449541         0.905695        -1.682309
 H         3.977477        -0.991204        -0.901508
