19
Iteration:  2719charge 0 multiplicity 1
 C        -0.064323         0.217904        -0.016383
 C         1.413788         0.007494         0.225020
 C         1.993021         0.041119         1.628644
 C         3.520011        -0.071382         1.267835
 O         3.980904         1.229839         1.236685
 C         3.370802         1.874531         0.066343
 C         2.489764         0.742629        -0.580969
 C         3.300504        -0.546558        -0.211703
 O         1.990673        -1.255759        -0.364252
 H        -0.380584         1.221632         0.435254
 H        -0.009718         0.499336        -1.051863
 H        -0.654307        -0.583851         0.305236
 H         1.846189         0.877095         2.309325
 H         1.534133        -0.912302         2.115694
 H         4.209602        -0.571089         1.957713
 H         2.787439         2.847883         0.329895
 H         4.214654         2.134884        -0.638995
 H         2.276238         0.724998        -1.756477
 H         4.050976        -0.952070        -0.900053
