19
Iteration:  1071charge 0 multiplicity 1
 C        -0.058804         0.266302        -0.134539
 C         1.439201        -0.026439         0.173166
 C         2.007141        -0.013216         1.642860
 C         3.519138        -0.098931         1.281783
 O         4.055917         1.185610         1.254956
 C         3.323783         1.934798         0.199795
 C         2.541465         0.788265        -0.574490
 C         3.189532        -0.486578        -0.278173
 O         2.008274        -1.307496        -0.340840
 H         0.124879         1.270195        -0.543477
 H        -0.474483        -0.471494        -0.826784
 H        -0.671122         0.252795         0.775843
 H         1.747288         0.888704         2.185884
 H         1.578325        -0.770656         2.164558
 H         4.057337        -0.830955         1.771281
 H         2.643763         2.613042         0.743283
 H         4.020419         2.556368        -0.431637
 H         2.162072         0.961149        -1.621813
 H         3.956184        -0.832631        -0.958157
