19
Iteration:  1916charge 0 multiplicity 1
 C         0.043300         0.472915         0.005012
 C         1.485540        -0.049205         0.197616
 C         2.020285        -0.093056         1.595933
 C         3.512664        -0.147185         1.277737
 O         3.948681         1.259709         1.214464
 C         3.167066         1.954227         0.174889
 C         2.524346         0.760219        -0.622606
 C         3.282718        -0.607969        -0.284161
 O         2.047305        -1.321181        -0.335991
 H        -0.048891         1.615289         0.047507
 H        -0.186133         0.144813        -0.992414
 H        -0.767761         0.091161         0.577556
 H         1.743311         0.676574         2.278113
 H         1.678249        -1.075368         2.116573
 H         4.173710        -0.731770         1.849694
 H         2.376567         2.573727         0.674725
 H         3.892895         2.472098        -0.593274
 H         2.375407         0.864971        -1.747985
 H         4.102649        -1.069108        -0.791121
