19
Iteration:   464
 C        -0.038361         0.344193         0.185316
 C         1.470607        -0.001874         0.161588
 C         2.022650        -0.429526         1.486512
 C         3.489486        -0.328804         1.101050
 O         3.914508         1.145972         1.511146
 C         3.192676         1.968746         0.474198
 C         2.557339         0.975946        -0.451062
 C         3.329802        -0.353701        -0.492980
 O         2.093581        -1.086405        -0.757932
 H        -0.716129        -0.627814         0.003582
 H        -0.365838         1.100366         0.988093
 H        -0.173987         0.892158        -0.748169
 H         1.619965         0.244422         2.276866
 H         1.707139        -1.564804         1.738417
 H         4.343449        -0.917056         1.521044
 H         2.398764         2.599097         0.872984
 H         4.067844         2.581945        -0.058966
 H         2.237775         1.357230        -1.535340
 H         4.168569        -0.654506        -1.083173
