19
Iteration:  4027charge 0 multiplicity 1
 C         0.048170         0.474214        -0.089705
 C         1.385069         0.023359         0.238063
 C         2.075549        -0.124220         1.660342
 C         3.570402        -0.144592         1.242121
 O         3.999545         1.200919         1.208863
 C         3.195628         1.899989         0.171793
 C         2.417909         0.747108        -0.492299
 C         3.214106        -0.524529        -0.322205
 O         2.109982        -1.320634        -0.364656
 H        -0.076306         1.454334        -0.464749
 H        -0.178460        -0.066895        -1.026996
 H        -0.749467         0.196167         0.614553
 H         1.651350         0.756186         2.225913
 H         1.655630        -0.979221         2.294061
 H         4.221508        -0.712336         1.785505
 H         2.554672         2.672251         0.646959
 H         3.976606         2.298104        -0.452467
 H         1.973307         0.920839        -1.508395
 H         4.047080        -0.783977        -0.910023
