19
Iteration:   225charge 0 multiplicity 1
 C        -0.091402         0.089831        -0.005253
 C         1.378270         0.089402         0.122762
 C         2.078010        -0.403726         1.428139
 C         3.513233        -0.310026         1.009030
 O         4.106324         0.892211         1.433889
 C         3.221390         1.894727         0.876835
 C         2.438348         1.168827        -0.307619
 C         3.297221        -0.200122        -0.496583
 O         2.057495        -0.923321        -0.843318
 H        -0.649098        -0.699233         0.590998
 H        -0.590938         1.041156         0.133487
 H        -0.290156        -0.158687        -1.005601
 H         1.890111         0.305090         2.269219
 H         1.820404        -1.374112         1.790804
 H         4.192507        -1.005701         1.446629
 H         2.563966         2.379862         1.670377
 H         3.709738         2.676510         0.415365
 H         2.416847         1.625068        -1.408521
 H         4.005880        -0.173852        -1.284357
