19
Iteration:  1061charge 0 multiplicity 1
 C        -0.070137         0.195671        -0.137724
 C         1.359249         0.000742         0.195318
 C         1.950324         0.041467         1.663578
 C         3.478420        -0.115456         1.248948
 O         4.119378         1.175902         1.278721
 C         3.319727         1.826923         0.188457
 C         2.515677         0.833519        -0.535602
 C         3.283033        -0.490190        -0.338152
 O         2.033266        -1.218815        -0.336234
 H        -0.366629         1.169571        -0.619104
 H        -0.521746        -0.581492        -0.789986
 H        -0.555836         0.233871         0.798273
 H         1.705134         0.953549         2.187775
 H         1.637406        -0.845595         2.237158
 H         4.086641        -0.754452         1.810812
 H         2.665745         2.632281         0.632412
 H         4.075721         2.225593        -0.546768
 H         2.412698         1.104073        -1.623352
 H         4.092945        -0.902122        -0.973816
