19
Iteration:  3276charge 0 multiplicity 1
 C        -0.105279         0.168075        -0.126175
 C         1.365962         0.006118         0.223840
 C         1.983620         0.080285         1.673200
 C         3.498993        -0.129263         1.351254
 O         4.069308         1.224932         1.154069
 C         3.468143         1.928701        -0.018054
 C         2.527798         0.796281        -0.635786
 C         3.245671        -0.530100        -0.143508
 O         1.937587        -1.258064        -0.198763
 H        -0.495004        -0.798914        -0.537570
 H        -0.679819         0.577935         0.655544
 H        -0.230783         0.788658        -1.058261
 H         1.790295         0.890250         2.308579
 H         1.589438        -0.969830         2.018636
 H         4.230749        -0.670045         1.960440
 H         2.889287         2.818640         0.217952
 H         4.311942         2.217936        -0.679322
 H         2.363056         0.957323        -1.695399
 H         4.005531        -1.058706        -0.756679
