19
Iteration:  2279
 C         0.023964         0.386967         0.011963
 C         1.454587         0.050795         0.223521
 C         1.970377        -0.159628         1.635519
 C         3.442150        -0.098358         1.304989
 O         3.957597         1.282162         1.159969
 C         3.344238         1.865542         0.056154
 C         2.579532         0.733439        -0.650930
 C         3.270570        -0.532843        -0.214421
 O         1.981290        -1.267349        -0.318259
 H        -0.513943         1.005730         0.755955
 H        -0.071893         0.765411        -1.043805
 H        -0.505010        -0.650695         0.086416
 H         1.797951         0.749871         2.373202
 H         1.811114        -1.101781         2.095390
 H         3.962542        -0.566069         2.178341
 H         2.608426         2.625141         0.387752
 H         4.091887         2.238289        -0.654672
 H         2.325832         0.747414        -1.644054
 H         4.149626        -0.937139        -0.798198
