19
Iteration:  1828
 C        -0.093198         0.010207        -0.130378
 C         1.368235         0.140735         0.151104
 C         1.911219         0.082918         1.667926
 C         3.426412        -0.153432         1.224881
 O         4.218295         1.147650         1.138657
 C         3.403546         1.917556         0.169243
 C         2.532618         0.864779        -0.530652
 C         3.211194        -0.488219        -0.215480
 O         1.966432        -1.219775        -0.273790
 H        -0.646659         0.538120         0.732059
 H        -0.395918         0.443058        -1.140650
 H        -0.302663        -1.003152         0.008919
 H         1.945218         0.985552         2.195796
 H         1.378029        -0.773537         2.247089
 H         4.084820        -0.843463         1.723815
 H         2.919182         2.679235         0.866940
 H         4.124524         2.512923        -0.584264
 H         2.367251         1.014806        -1.613265
 H         4.157836        -0.830131        -0.708414
