19
Iteration:   563
 C        -0.109512         0.123984        -0.000351
 C         1.446526         0.082519         0.199242
 C         1.970349        -0.227864         1.588718
 C         3.463432        -0.268577         1.184970
 O         4.037963         1.061373         1.346178
 C         3.328537         1.918024         0.508841
 C         2.591115         0.997867        -0.513910
 C         3.302476        -0.312352        -0.403580
 O         2.006605        -1.056210        -0.664224
 H        -0.500985         1.128915        -0.416053
 H        -0.454844        -0.720834        -0.683375
 H        -0.561984        -0.172239         0.910693
 H         1.702718         0.386647         2.518465
 H         1.575094        -1.367339         1.661282
 H         4.271238        -0.943956         1.486244
 H         2.602995         2.500633         1.078260
 H         4.042063         2.595187        -0.137359
 H         2.256124         1.519110        -1.510113
 H         4.148757        -0.703321        -0.984939
