19
Iteration:   490charge 0 multiplicity 1
 C        -0.041467         0.227532        -0.043048
 C         1.460703         0.067156         0.135099
 C         2.054582        -0.396796         1.550854
 C         3.525773        -0.287354         1.113743
 O         4.014399         1.063104         1.322113
 C         3.221499         1.946714         0.569639
 C         2.478546         1.021175        -0.430069
 C         3.334368        -0.314697        -0.382981
 O         1.978160        -1.046303        -0.618772
 H        -0.318742        -0.524835        -0.777025
 H        -0.631299         0.184397         0.912722
 H        -0.350742         1.244074        -0.405325
 H         1.748209         0.252869         2.376453
 H         1.791550        -1.346716         1.727364
 H         4.332108        -0.877372         1.562966
 H         2.501072         2.466549         1.236518
 H         3.976100         2.566372         0.120206
 H         2.174508         1.292697        -1.504468
 H         4.194463        -0.625707        -1.061717
