19
Iteration:  2408charge 0 multiplicity 1
 C         0.052728         0.392987        -0.030512
 C         1.449123        -0.046830         0.225848
 C         1.988714        -0.096978         1.706836
 C         3.491597        -0.084184         1.224066
 O         3.905320         1.274569         1.198442
 C         3.283566         1.896238         0.105186
 C         2.538326         0.774926        -0.561694
 C         3.275990        -0.613096        -0.299953
 O         2.014865        -1.298260        -0.310060
 H         0.225572         1.418421        -0.236845
 H        -0.349191        -0.000091        -0.929916
 H        -0.800139         0.335409         0.678797
 H         1.742553         0.801457         2.363147
 H         1.715415        -1.048485         2.106353
 H         4.229082        -0.695488         1.795313
 H         2.686963         2.755839         0.410449
 H         3.994925         2.289339        -0.598883
 H         2.450744         0.941709        -1.657942
 H         4.121494        -1.038460        -0.970528
