19
Iteration:  1263charge 0 multiplicity 1
 C        -0.021318         0.477771        -0.064573
 C         1.434722         0.026480         0.225818
 C         2.050047        -0.196104         1.706770
 C         3.508550        -0.098986         1.311874
 O         3.946924         1.243715         1.179445
 C         3.149785         1.913652         0.099146
 C         2.693938         0.741944        -0.670528
 C         3.331261        -0.568273        -0.261242
 O         1.983647        -1.315977        -0.323344
 H        -0.046952         1.547949        -0.202847
 H        -0.425804        -0.093287        -0.930604
 H        -0.728278         0.387424         0.839905
 H         1.663288         0.616853         2.389594
 H         1.732666        -1.255850         2.078061
 H         4.319392        -0.566271         1.841518
 H         2.421196         2.663050         0.514726
 H         3.798081         2.629497        -0.428190
 H         2.264246         0.870907        -1.674128
 H         4.057052        -1.144511        -0.687447
