19
Iteration:  1602charge 0 multiplicity 1
 C         0.023760         0.368024         0.044519
 C         1.444508         0.008294         0.201007
 C         1.972239        -0.065558         1.619920
 C         3.440775        -0.143429         1.215776
 O         3.830710         1.278195         1.264792
 C         3.294651         1.878882        -0.002198
 C         2.635257         0.714537        -0.553707
 C         3.333887        -0.573544        -0.231952
 O         2.036306        -1.285145        -0.360837
 H        -0.241157         0.952747         0.965485
 H        -0.160213         1.085019        -0.699410
 H        -0.756861        -0.322827        -0.058496
 H         1.914363         0.801878         2.324623
 H         1.621305        -0.985377         2.234174
 H         4.056293        -0.669467         1.976299
 H         2.831954         2.894560         0.162204
 H         4.183532         2.182124        -0.775152
 H         2.408748         1.004010        -1.719215
 H         4.228489        -1.021470        -0.787231
