19
Iteration:  1952charge 0 multiplicity 1
 C         0.015821         0.374717        -0.071430
 C         1.449508         0.010325         0.196119
 C         2.044593        -0.127391         1.697281
 C         3.455462        -0.145671         1.274428
 O         4.068228         1.194485         1.166051
 C         3.148296         1.935533         0.183187
 C         2.528074         0.808276        -0.626552
 C         3.269841        -0.541945        -0.279843
 O         2.038895        -1.285714        -0.300771
 H         0.011802         1.420552        -0.316962
 H        -0.139326        -0.055485        -1.025278
 H        -0.874304         0.181814         0.633318
 H         1.699995         0.775582         2.219095
 H         1.584321        -0.957741         2.035484
 H         4.197490        -0.723549         1.888873
 H         2.389526         2.600098         0.698199
 H         3.776224         2.707877        -0.366229
 H         2.298721         0.841349        -1.751829
 H         4.112895        -1.040551        -0.728702
