19
Iteration:  2263charge 0 multiplicity 1
 C        -0.018216         0.395035        -0.015660
 C         1.442024         0.007912         0.194882
 C         1.985972        -0.060925         1.753217
 C         3.501321        -0.166559         1.254810
 O         3.946820         1.242092         1.204114
 C         3.204303         1.918407        -0.022524
 C         2.605267         0.720553        -0.566252
 C         3.332071        -0.613871        -0.181277
 O         2.047934        -1.244092        -0.366538
 H        -0.058795         1.283787         0.635115
 H        -0.201756         0.757044        -1.013157
 H        -0.798068        -0.228380         0.249600
 H         1.714333         0.780981         2.270690
 H         1.335773        -0.947489         2.073459
 H         4.289049        -0.794271         1.620864
 H         2.461772         2.714562         0.356422
 H         3.969453         2.458112        -0.600942
 H         2.308592         0.771003        -1.728491
 H         4.138741        -1.111782        -0.662203
