19
Iteration:  4828
 C         0.043766         0.440710        -0.056127
 C         1.430071         0.017834         0.255924
 C         1.995198         0.167330         1.624076
 C         3.491882        -0.029689         1.295842
 O         3.946594         1.366524         1.029521
 C         3.290229         1.816324        -0.084372
 C         2.563021         0.517337        -0.684768
 C         3.277253        -0.692914        -0.105042
 O         1.976147        -1.416162        -0.051633
 H        -0.089362         0.808681        -1.078370
 H        -0.613188        -0.391904         0.026584
 H        -0.303912         1.232508         0.676925
 H         1.929742         1.185925         2.089985
 H         1.669130        -0.580121         2.287029
 H         4.246801        -0.573589         1.908888
 H         2.714772         2.750412         0.155337
 H         4.047948         2.148593        -0.889256
 H         2.157245         0.734100        -1.696763
 H         4.082124        -1.308347        -0.460682
