19
Iteration:  1415
 C         0.037753         0.369483        -0.031469
 C         1.474663         0.042059         0.206054
 C         2.001297        -0.126767         1.688856
 C         3.480078        -0.114323         1.278333
 O         3.913126         1.277931         1.159700
 C         3.252533         1.924993         0.051219
 C         2.584109         0.719680        -0.607441
 C         3.349395        -0.658029        -0.203972
 O         1.953781        -1.193445        -0.341452
 H        -0.176243         1.113707         0.786755
 H        -0.238451         0.767969        -1.047032
 H        -0.483666        -0.619949         0.257325
 H         1.724847         0.595991         2.361779
 H         1.641702        -1.122858         2.093552
 H         4.077791        -0.559386         2.041423
 H         2.609448         2.695260         0.422300
 H         4.142321         2.335922        -0.546354
 H         2.235496         0.699684        -1.685976
 H         4.140851        -1.077737        -0.751221
