19
Iteration:  4910
 C        -0.109296         0.084847        -0.102675
 C         1.352932         0.096059         0.276037
 C         1.980336         0.311398         1.647014
 C         3.474785         0.008881         1.263828
 O         4.140472         1.160049         1.047853
 C         3.435215         1.825545        -0.109266
 C         2.515937         0.701716        -0.638432
 C         3.186553        -0.603577        -0.113973
 O         1.975505        -1.279953        -0.033531
 H         0.003258        -0.269920        -1.188830
 H        -0.539777        -0.798251         0.524133
 H        -0.667532         1.004818        -0.081595
 H         2.028447         1.308306         2.086559
 H         1.636614        -0.351599         2.521067
 H         4.012688        -0.631547         2.006547
 H         2.970920         2.742474         0.328176
 H         4.140160         2.100264        -0.892186
 H         2.331215         0.874073        -1.707415
 H         3.896089        -1.096477        -0.881040
