19
Iteration:   162charge 0 multiplicity 1
 C        -0.126179         0.136432         0.014632
 C         1.421348         0.030311         0.141565
 C         2.066548        -0.651511         1.425599
 C         3.577372        -0.369352         1.022452
 O         4.027482         0.936868         1.511306
 C         3.190412         1.956578         0.782413
 C         2.485417         1.152362        -0.286051
 C         3.276826        -0.132635        -0.606562
 O         2.083042        -0.796919        -0.831573
 H        -0.446895         1.225289         0.351405
 H        -0.365066        -0.070744        -1.045093
 H        -0.601700        -0.544137         0.691391
 H         1.843393        -0.005232         2.414865
 H         1.863563        -1.691618         1.626069
 H         4.161809        -1.170663         1.435301
 H         2.619782         2.430034         1.559101
 H         3.909281         2.697738         0.354435
 H         2.249538         1.726607        -1.218810
 H         4.006204        -0.233050        -1.377612
