19
Iteration:  2319
 C        -0.156133         0.095071        -0.058452
 C         1.390126         0.062528         0.251170
 C         2.009044         0.080292         1.669424
 C         3.407774        -0.118919         1.278893
 O         4.059693         1.161743         1.191227
 C         3.462529         1.858571         0.061580
 C         2.564767         0.802659        -0.554873
 C         3.302452        -0.494481        -0.236168
 O         1.966296        -1.188435        -0.353111
 H        -0.850493         0.661089         0.635556
 H        -0.256966         0.493909        -1.000098
 H        -0.406141        -0.938538        -0.114011
 H         1.812475         1.062168         2.011132
 H         1.462401        -0.507092         2.494178
 H         4.141972        -0.752028         1.802468
 H         2.803635         2.630330         0.599286
 H         4.289499         2.317900        -0.506321
 H         2.389949         0.889655        -1.750766
 H         4.137104        -0.796720        -0.911653
