19
Iteration:  4158
 C        -0.020548         0.269873        -0.100380
 C         1.398531         0.038901         0.253059
 C         2.020773        -0.096683         1.772907
 C         3.460134        -0.118390         1.205628
 O         4.044401         1.231562         1.055094
 C         3.304706         1.956170         0.140550
 C         2.595954         0.762341        -0.544792
 C         3.272951        -0.560772        -0.229029
 O         1.931496        -1.194412        -0.298389
 H        -0.757940         0.393049         0.650176
 H        -0.194433         0.952709        -0.969916
 H        -0.363700        -0.605646        -0.623614
 H         1.673101         0.717921         2.454393
 H         1.941463        -1.227366         2.155972
 H         4.205393        -0.704569         1.778306
 H         2.692901         2.667987         0.719726
 H         3.979954         2.651729        -0.365073
 H         2.346532         0.821939        -1.717915
 H         4.176348        -1.211988        -0.559201
