19
Iteration:  3969
 C        -0.108152         0.093421        -0.001392
 C         1.382031         0.053217         0.169751
 C         1.931972         0.116415         1.658698
 C         3.433499        -0.183477         1.213046
 O         4.108448         1.174267         1.223151
 C         3.383987         1.905514         0.160251
 C         2.614447         0.831104        -0.562173
 C         3.278016        -0.503875        -0.301524
 O         1.971409        -1.212756        -0.370290
 H        -0.441359         0.723278         0.857775
 H        -0.318993         0.351416        -1.000486
 H        -0.424816        -0.952203         0.168797
 H         1.820062         1.195674         2.227619
 H         1.485112        -0.719922         2.230258
 H         4.032730        -0.912328         1.895041
 H         2.660736         2.669812         0.501095
 H         4.134896         2.417252        -0.503995
 H         2.339815         1.047282        -1.577530
 H         4.151840        -0.889279        -0.880116
