19
Iteration:  3711
 C         0.028511         0.400656        -0.145703
 C         1.424686         0.010527         0.255803
 C         1.988178        -0.178799         1.669709
 C         3.544935        -0.140535         1.204844
 O         4.025005         1.196628         1.191590
 C         3.202182         2.005211         0.239542
 C         2.509672         0.737494        -0.459000
 C         3.241553        -0.486476        -0.318437
 O         2.080073        -1.287128        -0.371551
 H        -0.467002        -0.123351        -0.983079
 H        -0.665676         0.387907         0.683022
 H         0.062535         1.495646        -0.448163
 H         1.646567         0.619738         2.344692
 H         1.551684        -1.169535         2.249453
 H         4.163382        -0.969752         1.779275
 H         2.448692         2.668636         0.674505
 H         3.868160         2.427647        -0.524585
 H         2.162288         0.903895        -1.514934
 H         3.984062        -0.910380        -1.132711
