19
Iteration:  4211charge 0 multiplicity 1
 C        -0.015654         0.304388         0.157775
 C         1.461092         0.061572         0.181558
 C         1.956334         0.003485         1.588906
 C         3.466922        -0.061175         1.304870
 O         3.955258         1.245717         1.180237
 C         3.282738         1.866910         0.035741
 C         2.670409         0.707954        -0.645751
 C         3.251961        -0.568619        -0.262138
 O         2.020508        -1.307572        -0.353848
 H        -0.523097        -0.087908         1.045790
 H        -0.156552         1.387257        -0.061129
 H        -0.492115        -0.123176        -0.794161
 H         1.662369         0.877162         2.226159
 H         1.465616        -0.913915         2.065020
 H         4.147522        -0.599920         1.978858
 H         2.485445         2.498792         0.490208
 H         4.163231         2.379988        -0.403344
 H         2.308289         0.953742        -1.714705
 H         4.148849        -1.096321        -0.783664
