19
Iteration:   113
 C        -0.053654         0.367136         0.146102
 C         1.504771        -0.033032         0.121395
 C         2.069677        -0.688878         1.398754
 C         3.593896        -0.325528         0.994002
 O         3.905887         0.960185         1.473377
 C         3.054730         1.862972         0.877469
 C         2.519533         1.102753        -0.334220
 C         3.372774        -0.116202        -0.563277
 O         2.093278        -0.881059        -0.946230
 H        -0.278742         0.794144        -0.757026
 H        -0.662315        -0.502472         0.433641
 H        -0.044262         1.266344         0.885246
 H         1.747488        -0.294351         2.295798
 H         1.803044        -1.805415         1.344925
 H         4.396904        -1.071695         1.261941
 H         2.172432         2.094889         1.568464
 H         3.570754         2.778358         0.775685
 H         1.992830         1.687445        -1.088236
 H         4.283873        -0.178049        -1.249171
