19
Iteration:   110charge 0 multiplicity 1
 C        -0.036323         0.370253         0.153506
 C         1.495143        -0.013343         0.121762
 C         2.091158        -0.689012         1.405339
 C         3.582691        -0.340770         0.985373
 O         3.918062         0.972206         1.481027
 C         3.043224         1.852638         0.880802
 C         2.533549         1.102636        -0.329809
 C         3.337659        -0.121990        -0.557328
 O         2.101708        -0.887332        -0.964365
 H        -0.402328         0.627308        -0.876205
 H        -0.677793        -0.462783         0.500595
 H        -0.182730         1.318699         0.771578
 H         1.658356        -0.338306         2.325631
 H         1.916151        -1.744276         1.342168
 H         4.354234        -1.097275         1.198525
 H         2.221812         2.106087         1.604383
 H         3.622293         2.878749         0.783201
 H         2.070607         1.643737        -1.074398
 H         4.248644        -0.149016        -1.169185
