19
Iteration:   574
 C        -0.049515         0.141135         0.059815
 C         1.408297         0.030179         0.073877
 C         2.045799        -0.308426         1.529195
 C         3.475088        -0.237789         1.158060
 O         3.996985         1.068852         1.419157
 C         3.269861         1.946105         0.403753
 C         2.591527         1.037350        -0.482044
 C         3.262022        -0.360085        -0.350292
 O         2.006654        -1.029723        -0.638154
 H        -0.326337         1.256430         0.053915
 H        -0.509203        -0.311449        -0.868035
 H        -0.519595        -0.146743         0.956516
 H         1.816119         0.284234         2.487053
 H         1.701231        -1.438809         1.773422
 H         4.023224        -0.993196         1.725353
 H         2.684218         2.710673         0.890823
 H         4.162587         2.528484        -0.056977
 H         2.467553         1.282365        -1.610787
 H         4.110064        -0.712245        -0.956018
