19
Iteration:  2695charge 0 multiplicity 1
 C        -0.136557         0.090627        -0.024966
 C         1.391430         0.064270         0.143637
 C         1.928127         0.075896         1.635255
 C         3.418599        -0.142507         1.275862
 O         4.095825         1.175833         1.180307
 C         3.404159         1.903252         0.119538
 C         2.658620         0.845840        -0.644364
 C         3.226675        -0.549697        -0.262553
 O         2.013001        -1.222131        -0.242344
 H        -0.584973         0.775892         0.697764
 H        -0.452025         0.461179        -1.061597
 H        -0.253053        -0.912928         0.308204
 H         1.883647         1.109051         2.101942
 H         1.515431        -0.626907         2.341390
 H         4.055486        -0.711928         2.009467
 H         2.620790         2.640504         0.401939
 H         4.145977         2.396250        -0.494884
 H         2.324527         1.192069        -1.703475
 H         4.019261        -0.974690        -0.910104
