19
Iteration:  3127
 C        -0.089598         0.141128         0.009246
 C         1.440328         0.065665         0.186269
 C         1.886070         0.013197         1.557111
 C         3.451359        -0.071864         1.316657
 O         4.093182         1.187123         1.142144
 C         3.395064         1.945343         0.141458
 C         2.615879         0.816211        -0.598533
 C         3.267585        -0.574600        -0.185392
 O         1.981519        -1.245580        -0.355709
 H        -0.543430         0.838579         0.647955
 H        -0.494320         0.344180        -1.023863
 H        -0.530778        -0.879125         0.096421
 H         1.833154         0.961017         2.101182
 H         1.420021        -0.648959         2.193755
 H         3.993171        -0.556627         2.124848
 H         2.739017         2.727448         0.582930
 H         4.133447         2.307801        -0.573983
 H         2.339697         1.075846        -1.543073
 H         4.025528        -1.193456        -0.707659
