19
Iteration:   474
 C        -0.036630         0.317112         0.074710
 C         1.416733        -0.003899         0.155162
 C         2.066507        -0.420471         1.536273
 C         3.531443        -0.253414         1.163082
 O         3.937500         1.095783         1.456903
 C         3.192699         1.950607         0.467346
 C         2.594057         0.980745        -0.471192
 C         3.258427        -0.349480        -0.491528
 O         2.082762        -1.060391        -0.714066
 H        -0.709731        -0.575466        -0.210723
 H        -0.400261         0.585696         1.112142
 H        -0.226500         1.141642        -0.618124
 H         1.810421         0.147703         2.459063
 H         1.716651        -1.566252         1.687846
 H         4.106399        -1.065668         1.622632
 H         2.469423         2.533076         1.045480
 H         3.907039         2.719411        -0.050711
 H         2.344461         1.493174        -1.419772
 H         4.087874        -0.569291        -1.121150
