19
Iteration:   715
 C        -0.137336         0.028433        -0.044677
 C         1.379976         0.063881         0.142942
 C         1.967110        -0.174706         1.571944
 C         3.471839        -0.237705         1.175163
 O         4.100818         1.101445         1.354360
 C         3.405575         1.955310         0.378934
 C         2.586429         0.943335        -0.440124
 C         3.250656        -0.352193        -0.350159
 O         2.015235        -1.022614        -0.541099
 H        -0.439993        -0.643145        -0.922531
 H        -0.756013        -0.216903         0.912975
 H        -0.634052         0.871450        -0.412588
 H         1.751806         0.645764         2.262597
 H         1.519539        -1.164955         1.974978
 H         4.049642        -0.931344         1.718761
 H         2.681059         2.750109         0.744567
 H         4.111036         2.294237        -0.405375
 H         2.501121         1.326292        -1.496629
 H         3.980640        -0.838446        -0.989952
