19
Iteration:  3454
 C        -0.100885         0.153624        -0.065890
 C         1.442476         0.003964         0.180796
 C         1.903025         0.066453         1.537198
 C         3.521708        -0.058525         1.269430
 O         4.140789         1.142237         1.102494
 C         3.358727         1.908462         0.228877
 C         2.597352         0.855021        -0.609885
 C         3.279117        -0.584204        -0.110279
 O         1.878907        -1.204812        -0.323858
 H        -0.598276         0.477579         0.866062
 H        -0.278396         0.791920        -1.041306
 H        -0.385252        -0.923455        -0.318146
 H         1.683595         1.036988         2.216936
 H         1.543222        -0.727047         2.194604
 H         4.082988        -0.489888         2.167150
 H         2.634499         2.578938         0.774227
 H         4.021880         2.486476        -0.409704
 H         2.578831         0.775658        -1.762026
 H         4.090462        -1.080889        -0.706368
