19
Iteration:  1667
 C        -0.067505         0.050897        -0.153954
 C         1.386432         0.069890         0.195075
 C         1.968996         0.130752         1.683607
 C         3.456240        -0.081418         1.319528
 O         4.252986         1.079046         1.111573
 C         3.293331         1.913879         0.226991
 C         2.562486         0.861848        -0.556760
 C         3.226208        -0.494918        -0.259599
 O         1.921587        -1.244555        -0.326898
 H        -0.635559         0.946008         0.251588
 H        -0.086300         0.072438        -1.229785
 H        -0.515216        -0.835784         0.285176
 H         1.870625         1.105179         2.206554
 H         1.439767        -0.722219         2.203900
 H         4.015653        -0.735410         2.011711
 H         2.608603         2.520428         0.892634
 H         3.908114         2.639905        -0.368759
 H         2.321192         1.057903        -1.713567
 H         4.077508        -0.752946        -0.947522
