19
Iteration:   952
 C        -0.015282         0.444280        -0.151182
 C         1.466992         0.037537         0.152517
 C         2.070868        -0.207011         1.652400
 C         3.519576        -0.191404         1.255814
 O         4.022056         1.253801         1.205245
 C         3.110173         1.967613         0.277190
 C         2.544360         0.755544        -0.537041
 C         3.311976        -0.558818        -0.249279
 O         1.966136        -1.265196        -0.368443
 H        -0.296559        -0.084788        -1.066003
 H        -0.624397         0.298684         0.717387
 H        -0.063695         1.469401        -0.390768
 H         1.948632         0.491160         2.539353
 H         1.718541        -1.296660         1.980563
 H         4.292292        -0.728665         1.695808
 H         2.396145         2.624308         0.862521
 H         3.781379         2.491216        -0.424911
 H         2.538521         0.984718        -1.639085
 H         4.097613        -0.978956        -0.861309
