19
Iteration:  3135charge 0 multiplicity 1
 C        -0.129067         0.116130        -0.023145
 C         1.375201         0.020108         0.117718
 C         1.921447         0.045094         1.611567
 C         3.448213        -0.084805         1.334357
 O         4.128742         1.190943         1.149330
 C         3.396630         1.953483         0.122007
 C         2.589020         0.854867        -0.594593
 C         3.336460        -0.605191        -0.206116
 O         1.926443        -1.194406        -0.312387
 H        -0.667117         0.681768         0.768630
 H        -0.233062         0.510885        -0.981528
 H        -0.447558        -0.946371         0.064748
 H         1.599599         0.967135         2.086180
 H         1.489125        -0.857908         2.228673
 H         4.111039        -0.744785         1.989270
 H         2.838395         2.823147         0.567173
 H         4.211567         2.315888        -0.493171
 H         2.432404         0.901834        -1.686820
 H         4.233862        -1.126075        -0.671588
