19
Iteration:  1199
 C        -0.095577         0.047165        -0.110923
 C         1.378922         0.064856         0.171899
 C         1.939903         0.116209         1.614222
 C         3.458005        -0.080203         1.257332
 O         4.204392         1.122609         1.192238
 C         3.400819         1.890530         0.162785
 C         2.514771         0.834381        -0.539638
 C         3.239210        -0.472294        -0.227882
 O         1.943893        -1.216997        -0.313547
 H        -0.643625         0.789459         0.460678
 H        -0.278061         0.248686        -1.101448
 H        -0.409860        -0.974338         0.298350
 H         1.698762         1.125428         2.182727
 H         1.603148        -0.827448         2.200634
 H         3.895470        -0.859485         1.818939
 H         2.831674         2.818752         0.547944
 H         4.169002         2.227781        -0.529257
 H         2.348148         1.125585        -1.599514
 H         4.089468        -0.908622        -0.665015
