19
Iteration:  2163charge 0 multiplicity 1
 C        -0.143328         0.055359        -0.039885
 C         1.377486         0.062111         0.175449
 C         1.961221         0.091109         1.588203
 C         3.379431        -0.150713         1.219091
 O         4.083594         1.155780         1.242417
 C         3.489782         1.876439         0.167558
 C         2.582520         0.938273        -0.570851
 C         3.240266        -0.483591        -0.294460
 O         1.997502        -1.253180        -0.272280
 H        -0.469645         0.911719        -0.448872
 H        -0.288434        -0.734218        -0.838110
 H        -0.733026        -0.132046         0.793135
 H         1.835541         1.031772         2.085264
 H         1.678596        -0.736814         2.166743
 H         4.085668        -0.809664         1.772597
 H         2.954881         2.682442         0.720584
 H         4.202189         2.294003        -0.588401
 H         2.398695         1.269236        -1.614275
 H         4.094568        -0.823921        -0.900849
