19
Iteration:  1330charge 0 multiplicity 1
 C        -0.109619         0.050156        -0.027822
 C         1.453286         0.126895         0.159907
 C         1.956877         0.039036         1.597984
 C         3.472109        -0.124461         1.318299
 O         4.106016         1.145544         1.124889
 C         3.383909         1.869484         0.139440
 C         2.594617         0.854784        -0.575766
 C         3.223788        -0.536039        -0.183612
 O         1.953445        -1.137012        -0.320505
 H        -0.764226         0.753197         0.515170
 H        -0.373971         0.143233        -1.044842
 H        -0.574369        -1.003904         0.180625
 H         1.743698         0.984822         2.253547
 H         1.462773        -0.838905         2.106263
 H         3.986940        -0.773258         1.969098
 H         2.890935         2.825564         0.505378
 H         4.115480         2.329762        -0.522000
 H         2.467209         1.058285        -1.691264
 H         4.104277        -0.907355        -0.677610
