19
Iteration:    73charge 0 multiplicity 1
 C        -0.083760         0.137027        -0.030303
 C         1.415809         0.003761         0.154746
 C         2.056149        -0.585551         1.415182
 C         3.528800        -0.390156         0.934898
 O         4.013428         0.873952         1.481178
 C         3.229899         1.869551         0.948611
 C         2.507074         1.189595        -0.212264
 C         3.297834        -0.007883        -0.567267
 O         2.067685        -0.792493        -0.900168
 H        -0.424438        -0.899607        -0.556407
 H        -0.552339         0.131910         0.976422
 H        -0.489202         0.958345        -0.603762
 H         1.646836         0.060861         2.321804
 H         1.879699        -1.678693         1.569128
 H         4.355849        -1.073490         1.090372
 H         2.440601         2.231004         1.620765
 H         3.877313         2.713223         0.536729
 H         2.146034         1.859764        -1.096037
 H         4.110720        -0.132674        -1.282959
