19
Iteration:  3566
 C         0.019057         0.387650        -0.002101
 C         1.473250        -0.037972         0.179194
 C         2.004129         0.011269         1.638752
 C         3.430180        -0.072648         1.236047
 O         3.966715         1.181327         1.264693
 C         3.267725         1.897792         0.191525
 C         2.597359         0.797219        -0.614083
 C         3.259492        -0.572621        -0.326940
 O         2.035021        -1.357724        -0.372633
 H        -0.067509         1.200720        -0.786305
 H        -0.570448        -0.431159        -0.463113
 H        -0.502552         0.510812         0.945974
 H         1.676548         1.036751         2.073599
 H         1.590718        -0.851779         2.254142
 H         4.133106        -0.563240         1.864132
 H         2.493546         2.561593         0.663740
 H         3.987549         2.520694        -0.309040
 H         2.281709         0.901617        -1.632630
 H         4.044065        -0.938163        -0.906011
