19
Iteration:   642
 C        -0.014360         0.329644        -0.059605
 C         1.407648         0.076305         0.206319
 C         2.060473        -0.331376         1.596674
 C         3.485514        -0.212672         1.139682
 O         4.040882         1.157295         1.325571
 C         3.163990         1.934145         0.458907
 C         2.562761         0.916294        -0.446100
 C         3.291995        -0.463145        -0.402313
 O         2.018887        -1.165169        -0.584281
 H        -0.667471         0.065252         0.716089
 H        -0.177214         1.352782        -0.327495
 H        -0.461828        -0.240482        -0.883598
 H         1.817567         0.286488         2.537145
 H         1.860526        -1.368404         1.865264
 H         4.248276        -0.796761         1.573195
 H         2.389613         2.464681         1.013016
 H         3.690325         2.731808        -0.128630
 H         2.452923         1.378345        -1.418752
 H         4.103058        -0.676533        -1.126502
