19
Iteration:  3427
 C        -0.104441         0.251886        -0.036251
 C         1.472892         0.035206         0.195830
 C         1.886901         0.093610         1.657822
 C         3.471050        -0.123834         1.301228
 O         4.078263         1.163942         1.228486
 C         3.304510         1.885338         0.082598
 C         2.645672         0.741609        -0.665962
 C         3.240475        -0.523452        -0.268009
 O         2.015040        -1.242728        -0.310565
 H        -0.469535         0.328930         0.993126
 H        -0.461411         1.073365        -0.558980
 H        -0.344386        -0.673392        -0.503472
 H         1.811010         0.963663         2.178313
 H         1.469889        -0.738704         2.235580
 H         4.005936        -0.706709         2.006843
 H         2.570071         2.589147         0.458812
 H         4.081281         2.426422        -0.522573
 H         2.496612         0.673500        -1.725381
 H         4.052143        -0.938101        -0.849568
