19
Iteration:  4026charge 0 multiplicity 1
 C         0.049228         0.470826        -0.092431
 C         1.373282         0.031488         0.223071
 C         2.072260        -0.136585         1.669938
 C         3.566701        -0.141198         1.248306
 O         4.009290         1.205807         1.202531
 C         3.192905         1.895529         0.180031
 C         2.423698         0.752572        -0.497233
 C         3.219638        -0.533618        -0.326653
 O         2.108029        -1.320234        -0.365737
 H        -0.048838         1.481090        -0.421647
 H        -0.157044        -0.068890        -0.980356
 H        -0.730328         0.162869         0.632636
 H         1.617378         0.791393         2.230820
 H         1.613594        -0.954672         2.310499
 H         4.247290        -0.701434         1.764009
 H         2.551183         2.671872         0.637819
 H         3.957368         2.333101        -0.457922
 H         1.967479         0.883797        -1.468022
 H         4.042837        -0.780879        -0.889091
