19
Iteration:  2562
 C        -0.006715         0.342498         0.031715
 C         1.447983         0.003110         0.201229
 C         1.954579        -0.052221         1.589291
 C         3.419237        -0.019061         1.205777
 O         3.976890         1.244153         1.243054
 C         3.326602         1.838961         0.091672
 C         2.579771         0.742385        -0.627966
 C         3.310465        -0.573369        -0.307879
 O         2.032561        -1.303987        -0.276239
 H        -0.128958         1.336200         0.293629
 H        -0.454492         0.073454        -0.975969
 H        -0.637689        -0.188581         0.817964
 H         1.677506         0.902362         2.183512
 H         1.637791        -0.872329         2.137251
 H         4.081749        -0.590761         1.867586
 H         2.561201         2.683937         0.508210
 H         3.942580         2.327387        -0.628554
 H         2.292990         1.034523        -1.576310
 H         4.201194        -1.078735        -0.696719
