19
Iteration:   947charge 0 multiplicity 1
 C        -0.044756         0.445132        -0.177170
 C         1.488363         0.025050         0.146085
 C         2.086005        -0.233286         1.670074
 C         3.542967        -0.194840         1.242544
 O         4.001557         1.242375         1.194117
 C         3.122225         1.955482         0.281193
 C         2.531136         0.776506        -0.545482
 C         3.316378        -0.535962        -0.233996
 O         1.956059        -1.244821        -0.360434
 H        -0.583652        -0.167203        -0.945966
 H        -0.637759         0.326963         0.774247
 H         0.103580         1.595697        -0.490058
 H         1.931615         0.515380         2.455554
 H         1.782583        -1.151483         1.963340
 H         4.391240        -0.878029         1.711116
 H         2.294837         2.491890         0.768079
 H         3.798739         2.553457        -0.362143
 H         2.517847         0.964366        -1.601827
 H         4.273778        -1.007563        -0.604672
