19
Iteration:  2696charge 0 multiplicity 1
 C        -0.139632         0.099936        -0.032002
 C         1.390380         0.061774         0.144395
 C         1.941431         0.072828         1.638763
 C         3.416723        -0.150446         1.270415
 O         4.090013         1.183716         1.187485
 C         3.401545         1.890978         0.113209
 C         2.662774         0.841384        -0.645109
 C         3.227572        -0.542428        -0.259595
 O         2.014603        -1.223177        -0.244051
 H        -0.607250         0.789637         0.721726
 H        -0.482786         0.447435        -1.049188
 H        -0.263548        -0.879633         0.309718
 H         1.875179         1.094889         2.098211
 H         1.532156        -0.635151         2.410296
 H         4.044619        -0.741680         1.977232
 H         2.598576         2.680600         0.409795
 H         4.155801         2.402747        -0.530120
 H         2.318065         1.192616        -1.725863
 H         4.055046        -0.948752        -0.871028
