19
Iteration:  2738charge 0 multiplicity 1
 C         0.038563         0.339000        -0.072845
 C         1.493607        -0.023050         0.232088
 C         1.961195        -0.200171         1.739478
 C         3.403973        -0.048327         1.310552
 O         3.986930         1.334209         1.152574
 C         3.340506         1.917882         0.029101
 C         2.560626         0.766106        -0.544608
 C         3.260748        -0.527023        -0.303342
 O         1.976934        -1.303770        -0.293346
 H        -0.123561         1.388165         0.234619
 H        -0.309679         0.407228        -1.193527
 H        -0.551694        -0.318771         0.601414
 H         1.706154         0.731039         2.313771
 H         1.642512        -1.134881         2.028378
 H         4.146287        -0.769882         1.770099
 H         2.684459         2.616901         0.391079
 H         4.014160         2.291892        -0.689234
 H         2.318643         0.919546        -1.646426
 H         4.044969        -1.246935        -0.633513
