19
Iteration:  4404
 C        -0.090358         0.224771        -0.034092
 C         1.392037         0.010548         0.167998
 C         1.982562         0.050234         1.665888
 C         3.479356        -0.010916         1.294130
 O         4.135722         1.174498         1.061581
 C         3.290883         1.901277         0.100193
 C         2.616238         0.721015        -0.662347
 C         3.268605        -0.539246        -0.155112
 O         1.956354        -1.249047        -0.247535
 H        -0.366763         0.602982        -1.052877
 H        -0.509156        -0.728533         0.101349
 H        -0.624149         0.806853         0.784819
 H         1.648350         1.091733         2.116858
 H         1.742142        -0.789719         2.397176
 H         4.054758        -0.681029         2.024897
 H         2.590977         2.624461         0.585578
 H         3.946245         2.532005        -0.541088
 H         2.403314         0.734217        -1.733327
 H         4.080055        -1.230153        -0.625469
