19
Iteration:  4853
 C         0.025231         0.486487         0.040544
 C         1.464724         0.001985         0.172680
 C         1.944645         0.128918         1.690783
 C         3.458889         0.010501         1.375479
 O         3.909227         1.335014         1.062685
 C         3.278994         1.783092        -0.254003
 C         2.683367         0.481938        -0.753508
 C         3.289723        -0.656543        -0.047611
 O         1.992669        -1.361506        -0.102339
 H        -0.248241         1.098987        -0.805015
 H        -0.791064        -0.367163         0.083190
 H        -0.108200         1.108043         0.989960
 H         1.869668         0.952818         2.376342
 H         1.732975        -0.844421         2.149887
 H         4.162433        -0.457966         1.912604
 H         2.479729         2.515703         0.017461
 H         4.041000         2.265846        -0.909353
 H         2.294395         0.576253        -1.766135
 H         4.094199        -1.202620        -0.498566
