19
Iteration:    80charge 0 multiplicity 1
 C        -0.063869         0.158245         0.011450
 C         1.456633         0.020476         0.110899
 C         2.058230        -0.588933         1.360546
 C         3.611938        -0.386601         0.957975
 O         4.005637         0.886812         1.486800
 C         3.144158         1.895017         0.919538
 C         2.460191         1.187933        -0.232163
 C         3.348386        -0.097278        -0.545050
 O         2.044703        -0.793380        -0.881039
 H        -0.479290        -0.501349        -0.636408
 H        -0.661856         0.056671         0.926213
 H        -0.434912         1.171466        -0.348466
 H         1.756068        -0.121393         2.234001
 H         1.702213        -1.679633         1.406674
 H         4.358804        -1.182221         1.240375
 H         2.493895         2.253047         1.753784
 H         3.788132         2.658964         0.605867
 H         1.999469         1.775242        -0.990854
 H         4.196023        -0.122708        -1.288190
