19
Iteration:  1338charge 0 multiplicity 1
 C        -0.087133         0.040334        -0.072535
 C         1.401293         0.095273         0.128412
 C         1.963092         0.105508         1.717584
 C         3.419713        -0.061650         1.322772
 O         4.137222         1.053336         1.119030
 C         3.381754         1.918219         0.124276
 C         2.559927         0.859788        -0.589097
 C         3.287915        -0.528295        -0.215025
 O         1.931689        -1.135313        -0.324409
 H        -0.710931         0.548254         0.679026
 H        -0.383346         0.286142        -1.170937
 H        -0.154466        -1.080225         0.201228
 H         1.707229         0.943046         2.195997
 H         1.541728        -0.814091         2.152005
 H         4.028130        -0.719950         1.937793
 H         2.802941         2.651687         0.661805
 H         4.247898         2.352048        -0.460306
 H         2.322605         1.084207        -1.626014
 H         4.083771        -1.022328        -0.677764
