19
Iteration:  3526charge 0 multiplicity 1
 C        -0.106883         0.328106        -0.025320
 C         1.444112         0.078197         0.198152
 C         1.987056        -0.098330         1.646947
 C         3.497097        -0.035182         1.324812
 O         3.985378         1.207197         1.171332
 C         3.328941         1.936486         0.138330
 C         2.609401         0.725672        -0.617668
 C         3.258793        -0.576329        -0.210731
 O         2.002824        -1.264130        -0.408817
 H        -0.362936         1.341163        -0.305429
 H        -0.316096        -0.377718        -0.751493
 H        -0.624344         0.110876         0.919451
 H         1.538932         0.508119         2.348123
 H         1.817998        -1.147149         1.982065
 H         4.158087        -0.693011         1.929968
 H         2.685299         2.709597         0.572503
 H         4.178876         2.400050        -0.426722
 H         2.417674         0.891464        -1.652529
 H         4.177433        -1.071381        -0.667895
