19
Iteration:  2449charge 0 multiplicity 1
 C         0.010821         0.307852         0.036726
 C         1.451612        -0.005241         0.161800
 C         1.967253        -0.051289         1.638600
 C         3.405287        -0.103383         1.277089
 O         3.942734         1.268469         1.164408
 C         3.338521         1.888628         0.062608
 C         2.628414         0.746673        -0.577963
 C         3.269197        -0.606130        -0.225379
 O         2.008816        -1.223094        -0.337563
 H        -0.023563         1.379475         0.517184
 H        -0.327486         0.246654        -0.991482
 H        -0.542246        -0.401942         0.635126
 H         1.811773         0.766414         2.247578
 H         1.559795        -1.074513         1.999571
 H         4.125786        -0.528565         2.000007
 H         2.647592         2.713982         0.443520
 H         4.050252         2.446144        -0.637792
 H         2.263816         0.939057        -1.693670
 H         4.060345        -1.275790        -0.627462
