19
Iteration:  3999
 C        -0.025111         0.278602         0.022541
 C         1.370617        -0.018818         0.131031
 C         2.045212        -0.015772         1.582003
 C         3.481402        -0.121110         1.224603
 O         4.062475         1.159085         1.132239
 C         3.205156         1.937903         0.222336
 C         2.647799         0.797044        -0.602651
 C         3.289602        -0.549721        -0.209741
 O         1.965813        -1.198841        -0.321158
 H        -0.129264         1.386973         0.242049
 H        -0.292760         0.126385        -1.081919
 H        -0.734958        -0.326565         0.584827
 H         1.562137         0.605937         2.348117
 H         1.821525        -1.013713         1.944867
 H         4.062898        -0.778949         1.983770
 H         2.364472         2.445916         0.733404
 H         3.869618         2.752829        -0.158385
 H         2.364064         0.841651        -1.678953
 H         4.192660        -1.039437        -0.734944
