19
Iteration:   484charge 0 multiplicity 1
 C        -0.052679         0.280750        -0.022109
 C         1.476167         0.045592         0.144983
 C         2.054257        -0.410398         1.543417
 C         3.523562        -0.233508         1.156503
 O         3.967065         1.048355         1.356412
 C         3.234408         1.918879         0.556574
 C         2.496932         1.015887        -0.474501
 C         3.332502        -0.308026        -0.409335
 O         1.996792        -1.059190        -0.656953
 H        -0.508758        -0.596526        -0.550030
 H        -0.391278         0.227139         1.008588
 H        -0.377167         1.224570        -0.489643
 H         1.880244         0.201446         2.444262
 H         1.841725        -1.562974         1.767849
 H         4.341538        -0.780279         1.631930
 H         2.508321         2.523188         1.145129
 H         3.943475         2.657164         0.087876
 H         2.222869         1.271127        -1.456739
 H         4.040701        -0.635401        -1.128964
