19
Iteration:   736charge 0 multiplicity 1
 C        -0.046746         0.147617        -0.014020
 C         1.477982         0.110939         0.191790
 C         1.965560        -0.240583         1.626782
 C         3.462671        -0.189314         1.208149
 O         3.949592         1.099199         1.350957
 C         3.398481         1.959220         0.292679
 C         2.531014         1.015637        -0.522243
 C         3.285636        -0.419887        -0.330805
 O         2.026213        -1.173168        -0.587639
 H        -0.320633         0.062012        -1.162782
 H        -0.647779        -0.502938         0.766555
 H        -0.501832         1.100975         0.221744
 H         1.771199         0.411430         2.425571
 H         1.569974        -1.284527         1.880305
 H         4.015356        -0.869642         1.817540
 H         2.770687         2.671172         0.959550
 H         4.110963         2.455841        -0.396877
 H         2.279908         1.280474        -1.605340
 H         4.151634        -0.680369        -0.944872
