19
Iteration:  3228
 C         0.046329         0.346392        -0.020802
 C         1.467593         0.036554         0.109405
 C         1.980854        -0.050220         1.649185
 C         3.410165        -0.056432         1.322616
 O         4.015650         1.265690         1.102942
 C         3.251606         1.892801         0.082848
 C         2.629204         0.706613        -0.686257
 C         3.275034        -0.591803        -0.117071
 O         1.955689        -1.323350        -0.233071
 H        -0.567152        -0.517288         0.380697
 H         0.007735         1.346399         0.569818
 H        -0.340574         0.471588        -1.038183
 H         1.739984         0.987185         2.041101
 H         1.455918        -0.808864         2.172811
 H         4.051495        -0.644054         2.007935
 H         2.453099         2.576550         0.482696
 H         3.917931         2.465503        -0.655820
 H         2.562271         0.777146        -1.845559
 H         4.154205        -1.080286        -0.506002
