19
Iteration:   190charge 0 multiplicity 1
 C        -0.087059         0.036783        -0.065429
 C         1.396199         0.086565         0.207770
 C         1.992498        -0.510230         1.501933
 C         3.523022        -0.299207         1.017081
 O         4.101930         0.892246         1.414616
 C         3.305084         1.932222         0.808770
 C         2.419669         1.175971        -0.233429
 C         3.232938        -0.111054        -0.556793
 O         2.052802        -0.867136        -0.867963
 H        -0.676928         0.279863         0.750221
 H        -0.235411         0.657412        -0.938924
 H        -0.135529        -1.061659        -0.332051
 H         1.855423         0.085866         2.322712
 H         1.840309        -1.576344         1.757748
 H         3.983228        -1.185451         1.467927
 H         2.859869         2.404342         1.742932
 H         3.995429         2.637736         0.315373
 H         2.224207         1.789270        -1.168505
 H         4.131085        -0.094465        -1.228603
