19
Iteration:  2214
 C        -0.072410         0.237328        -0.166962
 C         1.379329         0.032716         0.189972
 C         1.952265        -0.011201         1.674120
 C         3.496624        -0.118649         1.305740
 O         4.091381         1.137429         1.090321
 C         3.270204         1.941444         0.221947
 C         2.556157         0.834757        -0.611285
 C         3.295903        -0.558096        -0.227623
 O         2.017055        -1.223272        -0.283058
 H        -0.418012         1.273644        -0.352353
 H        -0.486582        -0.484676        -0.944516
 H        -0.600857         0.006479         0.867632
 H         1.878334         0.976283         2.334410
 H         1.615206        -0.902695         2.185687
 H         4.232500        -0.636930         2.004868
 H         2.649121         2.580230         0.812188
 H         4.063854         2.490281        -0.345828
 H         2.462423         0.955136        -1.634542
 H         4.039966        -1.123004        -0.872195
