19
Iteration:  4408
 C        -0.102049         0.229502        -0.030423
 C         1.359543        -0.006036         0.158158
 C         1.956313         0.125167         1.638024
 C         3.490497        -0.039423         1.286291
 O         4.140368         1.152648         1.078222
 C         3.300753         1.881817         0.089872
 C         2.599242         0.755373        -0.632097
 C         3.291429        -0.544899        -0.157254
 O         1.974812        -1.263539        -0.243268
 H        -0.386844         0.626093        -0.989494
 H        -0.469937        -0.880132         0.072073
 H        -0.588533         0.697318         0.872722
 H         1.663542         1.052869         2.033505
 H         1.814734        -0.617449         2.373745
 H         4.108963        -0.637542         1.928210
 H         2.559805         2.536470         0.541043
 H         3.963761         2.560370        -0.484266
 H         2.355473         0.883019        -1.742095
 H         4.097524        -1.203474        -0.592387
