19
Iteration:  2669charge 0 multiplicity 1
 C        -0.087829         0.046484        -0.094581
 C         1.389180         0.062152         0.151994
 C         1.959977         0.169025         1.640269
 C         3.406072        -0.071150         1.250617
 O         4.256361         1.139804         1.101413
 C         3.348090         1.885659         0.210861
 C         2.563102         0.799062        -0.587562
 C         3.216437        -0.504487        -0.134971
 O         1.916791        -1.209553        -0.323630
 H        -0.616425         0.755128         0.542875
 H        -0.329340         0.216539        -1.134182
 H        -0.154909        -1.027112         0.305725
 H         1.602007         1.098342         2.081610
 H         1.762488        -0.710769         2.239488
 H         3.959671        -0.785788         1.849828
 H         2.704937         2.530617         0.704709
 H         3.927976         2.390422        -0.543636
 H         2.377233         0.966880        -1.586498
 H         4.164604        -0.893952        -0.541001
