19
Iteration:  2197
 C        -0.134769         0.094153        -0.114796
 C         1.420067         0.075356         0.210428
 C         1.990616         0.083612         1.669179
 C         3.439914        -0.150542         1.240361
 O         4.178141         1.139615         1.153499
 C         3.363496         1.887031         0.167006
 C         2.572865         0.836033        -0.501675
 C         3.217649        -0.491006        -0.183368
 O         1.962554        -1.200602        -0.368719
 H        -0.286724         0.992070        -0.686971
 H        -0.208308        -0.654345        -0.913501
 H        -0.882646        -0.125349         0.544041
 H         1.774517         0.957885         2.170155
 H         1.610817        -0.738249         2.315480
 H         4.022321        -0.826791         1.835699
 H         2.698192         2.659127         0.729139
 H         3.910302         2.518580        -0.534676
 H         2.259563         1.030875        -1.596070
 H         4.123999        -0.791649        -0.657280
