19
Iteration:  4918
 C        -0.060835        -0.002915        -0.126651
 C         1.347371         0.144032         0.273300
 C         1.980379         0.341773         1.625778
 C         3.477058        -0.082748         1.298683
 O         4.208591         1.178810         1.010521
 C         3.423323         1.863405        -0.085854
 C         2.527174         0.717705        -0.569354
 C         3.186231        -0.590890        -0.176046
 O         1.929959        -1.277695        -0.018091
 H        -0.196869        -0.465290        -1.092032
 H        -0.662771        -0.607311         0.667138
 H        -0.556833         0.996897        -0.093503
 H         1.758368         1.358191         1.925856
 H         1.424405        -0.358035         2.273895
 H         3.895417        -0.688107         2.008253
 H         2.931808         2.816367         0.245189
 H         4.187668         2.230428        -0.822216
 H         2.158640         0.838954        -1.611303
 H         3.986819        -1.162392        -0.644793
