19
Iteration:   219charge 0 multiplicity 1
 C        -0.122228         0.041622        -0.054475
 C         1.382375         0.052807         0.102597
 C         2.054990        -0.397722         1.454257
 C         3.562078        -0.315088         0.970214
 O         4.102866         0.887080         1.436615
 C         3.239264         1.885529         0.852201
 C         2.439829         1.189784        -0.301882
 C         3.292706        -0.159004        -0.454073
 O         2.019809        -0.895889        -0.823437
 H        -0.594875        -0.474098         0.820248
 H        -0.483366         1.101719         0.043399
 H        -0.331410        -0.395562        -1.101624
 H         1.996503         0.397441         2.278726
 H         1.795944        -1.412036         1.865918
 H         4.153899        -1.202241         1.351111
 H         2.652794         2.276411         1.652250
 H         3.817933         2.809768         0.379461
 H         2.357295         1.704483        -1.184323
 H         4.191481        -0.174556        -1.148848
