19
Iteration:  4902charge 0 multiplicity 1
 C        -0.114682         0.143050        -0.091152
 C         1.416007         0.031082         0.265674
 C         1.993864         0.265585         1.743363
 C         3.430143         0.028930         1.242271
 O         4.111919         1.240428         1.050548
 C         3.439078         1.747038        -0.090024
 C         2.521233         0.725436        -0.706619
 C         3.206903        -0.589034        -0.127155
 O         1.947582        -1.295221        -0.047136
 H        -0.204579         0.010899        -1.218927
 H        -0.647145        -0.698286         0.236114
 H        -0.695317         1.027695         0.145314
 H         2.084264         1.330349         2.105966
 H         1.681881        -0.459765         2.512812
 H         4.228728        -0.528704         1.938798
 H         2.886592         2.621257         0.244579
 H         4.200759         1.949990        -0.837484
 H         2.409569         0.566532        -1.780897
 H         4.095486        -1.104072        -0.622411
