19
Iteration:  4437charge 0 multiplicity 1
 C        -0.070091         0.063326         0.001908
 C         1.357848         0.035202         0.180262
 C         1.950929         0.250603         1.600382
 C         3.415660        -0.061788         1.258690
 O         4.145883         1.109774         1.178106
 C         3.400494         1.908227         0.114291
 C         2.538378         0.783354        -0.665399
 C         3.215791        -0.490952        -0.281208
 O         1.993003        -1.296835        -0.194095
 H        -0.440355         0.784363        -0.736550
 H        -0.172740        -0.883945        -0.419396
 H        -0.609858         0.107816         0.973927
 H         1.824032         1.410828         1.778441
 H         1.701769        -0.233056         2.567191
 H         3.985536        -0.798394         1.914366
 H         2.881210         2.840097         0.457703
 H         4.242695         2.172663        -0.562433
 H         2.343833         0.882119        -1.754524
 H         4.019442        -1.086281        -0.860021
