19
Iteration:  4683charge 0 multiplicity 1
 C         0.024575         0.466306        -0.161601
 C         1.434877         0.002922         0.269883
 C         2.031152         0.054271         1.724036
 C         3.561807        -0.059365         1.246920
 O         3.917784         1.272315         1.115461
 C         3.216893         1.826065        -0.105289
 C         2.576526         0.663280        -0.664098
 C         3.268567        -0.612868        -0.131644
 O         1.984632        -1.387286        -0.073110
 H        -0.671864        -0.371791        -0.371061
 H        -0.387545         1.133400         0.620056
 H         0.125658         1.078493        -1.007512
 H         2.039792         0.994833         2.192911
 H         1.837101        -0.778756         2.412797
 H         4.405654        -0.673266         1.855154
 H         2.621243         2.628862         0.328344
 H         3.688990         2.390134        -0.983463
 H         2.152028         0.611234        -1.644391
 H         4.079038        -1.205264        -0.604124
