19
Iteration:  3976
 C        -0.043507         0.147950         0.036454
 C         1.372248         0.118419         0.123106
 C         1.920803         0.065716         1.651599
 C         3.480269        -0.182694         1.222981
 O         4.121884         1.210815         1.203075
 C         3.314933         1.867449         0.177160
 C         2.635208         0.828387        -0.589730
 C         3.277570        -0.536301        -0.292262
 O         1.974464        -1.248018        -0.363299
 H        -0.640698         0.832644         0.680215
 H        -0.562731         0.257472        -1.019304
 H        -0.347097        -0.873551         0.270553
 H         1.777140         0.935280         2.331703
 H         1.324445        -0.670864         2.204032
 H         3.953882        -0.815809         2.019704
 H         2.629686         2.591964         0.659058
 H         4.003587         2.492910        -0.423550
 H         2.368702         1.172090        -1.650432
 H         4.174145        -0.971162        -0.858264
