19
Iteration:  2769charge 0 multiplicity 1
 C        -0.044134         0.411192        -0.068492
 C         1.472121         0.058194         0.176473
 C         2.085508        -0.077869         1.612186
 C         3.513169        -0.124953         1.314436
 O         3.947226         1.253080         1.181573
 C         3.190623         1.835895         0.107984
 C         2.539494         0.722164        -0.558082
 C         3.315479        -0.567246        -0.268939
 O         2.036405        -1.276766        -0.284047
 H        -0.174979         1.462896        -0.088741
 H        -0.385294        -0.081781        -1.088070
 H        -0.684196         0.020228         0.797421
 H         1.878359         0.860083         2.253590
 H         1.564851        -0.845149         2.140435
 H         4.260607        -0.687230         1.959058
 H         2.406539         2.574692         0.498718
 H         3.797179         2.437011        -0.593741
 H         2.374121         0.818868        -1.603602
 H         4.065855        -1.208919        -0.814290
