19
Iteration:  4480charge 0 multiplicity 1
 C        -0.055239         0.214062        -0.080861
 C         1.433602         0.049824         0.269210
 C         1.993113         0.004644         1.686293
 C         3.465439         0.016340         1.305956
 O         4.092318         1.234806         1.100473
 C         3.419400         1.859195        -0.098620
 C         2.556212         0.770477        -0.612835
 C         3.243338        -0.559286        -0.088437
 O         1.910322        -1.271126        -0.226568
 H        -0.531169         1.221241        -0.118218
 H        -0.245728        -0.223323        -1.015904
 H        -0.588425        -0.523232         0.531701
 H         1.493974         0.805554         2.399450
 H         1.612170        -0.989198         2.029037
 H         4.052074        -0.646480         2.024343
 H         2.802158         2.712245         0.313752
 H         4.070550         2.352942        -0.832754
 H         2.201903         0.745831        -1.664695
 H         4.129213        -1.070689        -0.607223
