19
Iteration:   978charge 0 multiplicity 1
 C         0.023522         0.271227        -0.096082
 C         1.452321        -0.020826         0.183673
 C         1.964723        -0.076563         1.675967
 C         3.429412        -0.139696         1.263638
 O         4.022789         1.169850         1.227890
 C         3.290972         1.892468         0.222135
 C         2.521771         0.813880        -0.588691
 C         3.277492        -0.462094        -0.342882
 O         2.014766        -1.228343        -0.369912
 H        -0.108505         0.463190        -1.173543
 H        -0.694461        -0.337940         0.541889
 H        -0.276905         1.226326         0.426380
 H         1.719454         0.791717         2.237965
 H         1.598198        -0.968791         2.234988
 H         4.251498        -0.817964         1.653934
 H         2.599936         2.611076         0.723738
 H         4.008393         2.493822        -0.311772
 H         2.253565         1.152567        -1.558654
 H         4.231088        -0.961272        -0.712517
