19
Iteration:  3017
 C        -0.076139         0.139695         0.005604
 C         1.435735        -0.007770         0.145993
 C         1.967182         0.100319         1.548380
 C         3.419531        -0.108809         1.323879
 O         4.077549         1.199700         1.276105
 C         3.391889         1.867147         0.158602
 C         2.560002         0.837250        -0.673097
 C         3.199490        -0.482318        -0.291605
 O         2.036870        -1.256623        -0.317090
 H        -0.321663         1.033733        -0.617285
 H        -0.397701        -0.810551        -0.606326
 H        -0.575698         0.246116         1.054986
 H         1.712713         1.090768         2.000036
 H         1.603547        -0.798380         2.065561
 H         4.086239        -0.797726         1.974369
 H         2.562654         2.345948         0.727407
 H         4.190908         2.479705        -0.322534
 H         2.280456         1.082804        -1.643651
 H         3.965776        -1.044402        -0.982316
