19
Iteration:  3380
 C        -0.068689         0.291659        -0.120229
 C         1.430248         0.062020         0.275387
 C         1.970604        -0.086019         1.703406
 C         3.501022        -0.046839         1.330578
 O         4.019349         1.272177         1.177638
 C         3.376424         1.835352         0.026336
 C         2.589511         0.693185        -0.626512
 C         3.293336        -0.519887        -0.203747
 O         1.928158        -1.264831        -0.300693
 H        -0.854311        -0.121620         0.487996
 H        -0.161544         1.422555         0.065116
 H         0.080662         0.217718        -1.167751
 H         1.668435         0.766145         2.474110
 H         1.586803        -1.013818         2.156589
 H         4.336617        -0.623518         1.807474
 H         2.544881         2.514270         0.297128
 H         4.005466         2.319116        -0.731476
 H         2.110695         0.740421        -1.695971
 H         4.118120        -1.030627        -0.735753
