19
Iteration:  4013
 C        -0.022936         0.390493        -0.090156
 C         1.473575        -0.019697         0.246234
 C         1.952427        -0.134409         1.708026
 C         3.495286        -0.130750         1.242470
 O         4.071398         1.240248         1.141433
 C         3.190709         1.898042         0.215134
 C         2.538683         0.784348        -0.577634
 C         3.299168        -0.518804        -0.280495
 O         2.006858        -1.307700        -0.381726
 H        -0.007620         1.497983        -0.021634
 H        -0.376338         0.081484        -1.030389
 H        -0.699901         0.094932         0.735125
 H         1.941682         0.856337         2.344970
 H         1.582949        -1.046221         2.199311
 H         4.235922        -0.728057         1.812310
 H         2.461566         2.512336         0.782080
 H         3.736939         2.566610        -0.480494
 H         2.373746         1.030785        -1.592818
 H         4.084086        -0.961950        -0.863771
