19
Iteration:  3278
 C        -0.104172         0.135728        -0.139634
 C         1.359556         0.011235         0.231454
 C         1.981583         0.072965         1.686848
 C         3.501202        -0.089150         1.350702
 O         4.081534         1.201352         1.157430
 C         3.473582         1.936646        -0.019519
 C         2.534320         0.785008        -0.641013
 C         3.240132        -0.538244        -0.162631
 O         1.930167        -1.235795        -0.197435
 H        -0.483862        -0.768344        -0.507759
 H        -0.588403         0.555542         0.693935
 H        -0.165543         0.818761        -1.028976
 H         1.708320         0.918602         2.346762
 H         1.573074        -0.938515         1.942950
 H         4.155991        -0.671104         1.974781
 H         2.897702         2.832076         0.196060
 H         4.267742         2.223351        -0.645466
 H         2.314242         0.920279        -1.625743
 H         4.003729        -1.046193        -0.765853
