19
Iteration:  3103
 C        -0.042188         0.287064         0.016260
 C         1.471201         0.001862         0.154309
 C         1.954129         0.076527         1.636741
 C         3.456787        -0.120092         1.284310
 O         4.023936         1.159261         1.234598
 C         3.254184         1.897585         0.148753
 C         2.528640         0.750927        -0.694297
 C         3.364743        -0.493836        -0.266369
 O         2.004491        -1.267709        -0.321720
 H        -0.305231         1.345154         0.126986
 H        -0.338874        -0.009585        -0.953655
 H        -0.707667        -0.439870         0.523319
 H         1.790492         0.927082         2.263708
 H         1.572843        -0.734419         2.312408
 H         4.109647        -0.895882         1.826997
 H         2.561289         2.688340         0.558445
 H         4.042127         2.255022        -0.469985
 H         2.420884         0.860178        -1.759667
 H         4.256540        -0.999816        -0.784182
