19
Iteration:  4665charge 0 multiplicity 1
 C         0.045606         0.402386        -0.067072
 C         1.413941         0.008969         0.213254
 C         2.014531         0.122753         1.656027
 C         3.467649        -0.049471         1.299269
 O         4.030833         1.319668         1.095162
 C         3.250516         1.819948        -0.005516
 C         2.484409         0.608846        -0.646850
 C         3.299944        -0.694513        -0.241306
 O         1.996569        -1.347049        -0.082965
 H        -0.653795        -0.551559         0.021922
 H        -0.299420         1.128337         0.644209
 H         0.045577         0.827475        -1.157185
 H         1.826702         1.153710         2.103053
 H         1.443284        -0.639644         2.156827
 H         4.140637        -0.622977         1.994988
 H         2.491065         2.603487         0.224898
 H         4.047530         2.444302        -0.477291
 H         2.318721         0.675517        -1.766557
 H         4.187903        -1.151011        -0.820222
