19
Iteration:  4576
 C        -0.115146         0.158244        -0.151118
 C         1.358621         0.051105         0.245641
 C         2.001020         0.143994         1.709981
 C         3.520804        -0.030207         1.314072
 O         4.113088         1.209187         1.110052
 C         3.389706         1.824495        -0.066584
 C         2.517511         0.776205        -0.558567
 C         3.191582        -0.569563        -0.223868
 O         1.984358        -1.280982        -0.135831
 H        -0.830386         0.309058         0.777281
 H        -0.370810         0.970774        -0.896970
 H        -0.322945        -0.801746        -0.659825
 H         1.864388         1.115953         2.233330
 H         1.717517        -0.620360         2.446502
 H         4.308959        -0.735998         1.808459
 H         2.905864         2.765426         0.306832
 H         4.113925         2.092108        -0.883592
 H         2.359732         0.953208        -1.629231
 H         4.030665        -1.088688        -0.711179
