19
Iteration:  1004charge 0 multiplicity 1
 C        -0.164755         0.093611        -0.028456
 C         1.375065         0.129655         0.182153
 C         1.953677         0.027882         1.527241
 C         3.476100        -0.158677         1.272909
 O         4.080162         1.135488         1.262745
 C         3.429098         1.894950         0.182673
 C         2.562577         0.858183        -0.516361
 C         3.262123        -0.509920        -0.260221
 O         2.030410        -1.191975        -0.420473
 H        -0.438114         0.609293        -0.962909
 H        -0.484304        -0.925894         0.027926
 H        -0.831228         0.519613         0.832655
 H         1.729671         0.974873         2.096081
 H         1.523992        -0.765921         2.046499
 H         4.119015        -0.800727         1.925976
 H         2.840894         2.710038         0.642327
 H         4.218161         2.452885        -0.394458
 H         2.426453         1.035752        -1.630163
 H         4.109085        -0.871678        -0.774829
