19
Iteration:  3315charge 0 multiplicity 1
 C        -0.119604         0.087971        -0.088962
 C         1.417125         0.082087         0.163761
 C         1.967355         0.185241         1.610151
 C         3.478743        -0.113740         1.324055
 O         4.132730         1.127487         1.119919
 C         3.344812         1.941779         0.054486
 C         2.577347         0.783459        -0.582759
 C         3.250030        -0.567538        -0.142884
 O         1.976679        -1.259368        -0.265001
 H        -0.673495        -0.852334        -0.307680
 H        -0.717173         0.549374         0.797538
 H        -0.364673         0.844684        -0.822852
 H         1.808617         1.179007         2.142741
 H         1.345471        -0.415587         2.250186
 H         4.061213        -0.728250         2.069698
 H         2.850065         2.730585         0.664695
 H         4.206778         2.324153        -0.525084
 H         2.335632         0.718916        -1.727196
 H         4.118397        -0.973113        -0.670437
