19
Iteration:  1611
 C        -0.033944         0.391434         0.024159
 C         1.463753        -0.026805         0.201232
 C         2.003265        -0.045159         1.626859
 C         3.465587        -0.061030         1.233527
 O         3.873235         1.307212         1.270170
 C         3.340643         1.827411         0.086509
 C         2.562121         0.713909        -0.573688
 C         3.277819        -0.622292        -0.266433
 O         2.063786        -1.283842        -0.372626
 H        -0.302518         0.944175         0.988050
 H        -0.089545         1.065614        -0.889472
 H        -0.622433        -0.429990        -0.158822
 H         1.800491         0.873429         2.127544
 H         1.477386        -0.923758         2.233784
 H         4.256228        -0.613674         1.780442
 H         2.712852         2.747446         0.344913
 H         4.105911         2.068747        -0.671238
 H         2.279200         0.999965        -1.722244
 H         4.142139        -1.176018        -0.770257
