19
Iteration:  4792
 C        -0.153521         0.111704        -0.119795
 C         1.381726         0.077823         0.277766
 C         1.903549         0.231525         1.662143
 C         3.470942        -0.024207         1.283828
 O         4.219755         1.225781         0.936061
 C         3.417205         1.832518        -0.035894
 C         2.616993         0.716880        -0.647560
 C         3.231223        -0.622819        -0.055147
 O         1.920162        -1.240310        -0.071174
 H        -0.142387        -0.331998        -1.149556
 H        -0.637707        -0.599036         0.501525
 H        -0.688903         1.009612        -0.141593
 H         1.837871         1.184573         2.187742
 H         1.472550        -0.542829         2.367747
 H         4.208933        -0.551920         2.073657
 H         2.746254         2.619626         0.400948
 H         4.126447         2.236371        -0.776795
 H         2.040899         0.638960        -1.566951
 H         4.090889        -1.245042        -0.510982
