19
Iteration:  1058
 C        -0.077885         0.178564        -0.136222
 C         1.372746         0.015182         0.198558
 C         1.924561         0.033389         1.658793
 C         3.459976        -0.128092         1.230263
 O         4.130174         1.173819         1.269545
 C         3.322098         1.807209         0.196072
 C         2.508907         0.840573        -0.535014
 C         3.309358        -0.493739        -0.335891
 O         2.033259        -1.193952        -0.336851
 H        -0.506946         1.059632        -0.645834
 H        -0.475389        -0.571909        -0.736222
 H        -0.690159         0.203262         0.875839
 H         1.761939         0.989148         2.212177
 H         1.680345        -0.757314         2.195003
 H         4.095128        -0.722000         1.880109
 H         2.783520         2.686644         0.540932
 H         4.058469         2.212922        -0.495078
 H         2.429379         1.148846        -1.592759
 H         4.121513        -0.903794        -0.866813
