19
Iteration:  4160
 C        -0.015372         0.295063        -0.098986
 C         1.399838         0.040156         0.251477
 C         2.013966        -0.106960         1.762483
 C         3.467185        -0.092878         1.197040
 O         4.038507         1.231208         1.070056
 C         3.301777         1.946809         0.136491
 C         2.583929         0.745793        -0.537711
 C         3.268801        -0.558347        -0.237838
 O         1.940184        -1.205615        -0.295754
 H        -0.695867         0.362556         0.752941
 H        -0.192830         0.992200        -0.995237
 H        -0.360309        -0.575449        -0.603550
 H         1.634611         0.698059         2.381522
 H         1.982525        -1.227081         2.180586
 H         4.222040        -0.709756         1.797862
 H         2.657363         2.648516         0.725922
 H         3.991138         2.617727        -0.399576
 H         2.380514         0.810996        -1.732455
 H         4.183585        -1.195385        -0.566733
