19
Iteration:  1427
 C         0.034552         0.378010         0.035077
 C         1.462948         0.027749         0.135033
 C         2.025277        -0.134797         1.672241
 C         3.473011        -0.119444         1.292795
 O         3.900983         1.314831         1.243247
 C         3.278878         1.882353         0.018852
 C         2.604440         0.734961        -0.591553
 C         3.243066        -0.569560        -0.178753
 O         2.004461        -1.290375        -0.373739
 H        -0.137949         1.391244         0.552108
 H        -0.251114         0.621199        -1.005257
 H        -0.904932        -0.288587         0.448791
 H         1.938626         0.606869         2.425998
 H         1.650883        -1.168787         1.888420
 H         4.299214        -0.641716         1.720970
 H         2.595317         2.696815         0.195013
 H         4.023129         2.331091        -0.743681
 H         2.497425         0.868516        -1.739051
 H         4.038827        -1.137744        -0.649601
