19
Iteration:  2807
 C        -0.090481         0.170495        -0.035948
 C         1.385892         0.009603         0.119706
 C         1.945284         0.053808         1.613812
 C         3.428890        -0.067540         1.294204
 O         4.151687         1.153195         1.102430
 C         3.318171         1.891889         0.204815
 C         2.558354         0.809503        -0.570512
 C         3.278819        -0.543556        -0.244864
 O         2.023169        -1.221393        -0.267690
 H        -0.484103         1.253795        -0.122576
 H        -0.317708        -0.254521        -0.989361
 H        -0.618142        -0.428716         0.693141
 H         1.865724         1.007703         2.070223
 H         1.443098        -0.821711         2.115474
 H         4.056633        -0.586937         1.973584
 H         2.679126         2.515653         0.744715
 H         3.998813         2.412569        -0.451866
 H         2.239882         1.086493        -1.642084
 H         4.151565        -0.923362        -0.716101
