19
Iteration:  4864charge 0 multiplicity 1
 C         0.029471         0.448933         0.056263
 C         1.461014         0.070196         0.197674
 C         2.002472         0.069548         1.683656
 C         3.428069         0.032298         1.317587
 O         3.929516         1.375285         0.981258
 C         3.330079         1.773848        -0.148154
 C         2.594302         0.552559        -0.730469
 C         3.318681        -0.698480        -0.043349
 O         1.960024        -1.372029        -0.111206
 H        -0.151187         0.992461        -0.863987
 H        -0.567567        -0.570491         0.120773
 H        -0.294722         1.100702         0.938847
 H         1.510690         0.883683         2.168087
 H         1.511481        -0.806625         2.132894
 H         3.997244        -0.373289         2.041878
 H         2.639127         2.668262        -0.023530
 H         4.144484         2.098013        -0.839390
 H         2.545827         0.381227        -1.825217
 H         4.167009        -1.349929        -0.163710
