19
Iteration:  2134charge 0 multiplicity 1
 C        -0.051773         0.207961        -0.007746
 C         1.463098         0.038628         0.138690
 C         1.962495        -0.028914         1.656274
 C         3.430291        -0.142077         1.381575
 O         4.030447         1.249536         1.202387
 C         3.344329         1.827977         0.092902
 C         2.598719         0.827622        -0.586345
 C         3.304751        -0.576424        -0.254085
 O         1.965996        -1.194697        -0.393848
 H        -0.272562         1.425394        -0.077645
 H        -0.386919        -0.242435        -0.946963
 H        -0.555365        -0.221275         0.898877
 H         1.640614         0.829325         2.246647
 H         1.554150        -1.010844         2.184486
 H         4.183665        -0.633974         1.917415
 H         2.681626         2.622801         0.552452
 H         3.929578         2.445307        -0.569725
 H         2.315431         1.075555        -1.696589
 H         4.051981        -0.962984        -0.895155
