19
Iteration:  3652
 C        -0.123489         0.110969         0.026118
 C         1.412327         0.040403         0.167202
 C         1.991554         0.062445         1.646376
 C         3.408246        -0.212873         1.246593
 O         4.032216         1.158508         1.275413
 C         3.391026         1.893612         0.246532
 C         2.607811         0.850472        -0.661982
 C         3.282920        -0.455004        -0.324264
 O         2.029842        -1.205730        -0.408982
 H        -0.366928        -0.141174        -1.078696
 H        -0.733322        -0.569818         0.738552
 H        -0.448015         1.190950         0.069520
 H         1.843840         1.102749         2.071946
 H         1.521665        -0.736965         2.106490
 H         3.990472        -0.864025         1.800704
 H         2.727703         2.714573         0.632173
 H         4.157137         2.461658        -0.296145
 H         2.372554         1.171433        -1.660459
 H         4.006904        -0.994111        -0.799240
