19
Iteration:  1808
 C        -0.119520         0.188646        -0.089828
 C         1.426244         0.003838         0.216213
 C         1.972071         0.039869         1.626147
 C         3.527618        -0.064027         1.324573
 O         4.157565         1.173401         1.115698
 C         3.263559         1.890692         0.203513
 C         2.602774         0.807963        -0.594075
 C         3.255680        -0.589780        -0.229567
 O         1.934983        -1.191378        -0.350418
 H        -0.674919         0.983813         0.534692
 H        -0.154270         0.456719        -1.146625
 H        -0.578612        -0.811608         0.116465
 H         1.624514         0.855828         2.181770
 H         1.788365        -0.935436         2.093320
 H         4.080431        -0.602571         2.065183
 H         2.587199         2.568162         0.771008
 H         3.942757         2.538087        -0.289813
 H         2.413065         1.066171        -1.710044
 H         4.059609        -1.095319        -0.741034
