19
Iteration:  2882charge 0 multiplicity 1
 C        -0.126573         0.279215        -0.020783
 C         1.356158         0.010941         0.210059
 C         1.981999        -0.008330         1.644288
 C         3.435830        -0.107617         1.294131
 O         4.042438         1.246185         1.187255
 C         3.350134         1.835181         0.086766
 C         2.619354         0.763910        -0.691892
 C         3.350318        -0.509047        -0.239416
 O         2.020470        -1.267777        -0.289324
 H        -0.572410         0.944070         0.877204
 H        -0.369364         0.863629        -0.922407
 H        -0.634807        -0.688724         0.019208
 H         1.705405         0.918173         2.133937
 H         1.692040        -0.895103         2.234795
 H         4.035885        -0.653847         1.972874
 H         2.618685         2.621285         0.474173
 H         4.093346         2.414158        -0.490640
 H         2.332615         0.764454        -1.839078
 H         4.194943        -1.052558        -0.619461
