19
Iteration:   120charge 0 multiplicity 1
 C        -0.012631         0.363211         0.144866
 C         1.483657        -0.052016         0.111942
 C         2.053928        -0.697770         1.352518
 C         3.598869        -0.335487         1.004781
 O         3.909430         0.921452         1.482703
 C         3.026807         1.884781         0.863853
 C         2.457582         1.123761        -0.323759
 C         3.425204        -0.112077        -0.583742
 O         2.096082        -0.866576        -0.899344
 H        -0.195336         1.108315        -0.708713
 H        -0.714298        -0.489132         0.261449
 H         0.095350         0.869817         1.123793
 H         1.910699        -0.145408         2.339341
 H         1.691570        -1.689735         1.405316
 H         4.408656        -0.932497         1.427136
 H         2.150002         2.112210         1.470838
 H         3.642559         2.870186         0.589849
 H         2.067865         1.672617        -1.143087
 H         4.161549        -0.284002        -1.355577
