19
Iteration:   904
 C        -0.013871         0.203255        -0.019570
 C         1.449507         0.018006         0.122023
 C         1.951816        -0.063910         1.539898
 C         3.456099        -0.190482         1.211005
 O         4.014240         1.153745         1.291744
 C         3.320510         1.930019         0.269634
 C         2.552347         0.913421        -0.542823
 C         3.285626        -0.469885        -0.230062
 O         2.005284        -1.242185        -0.458814
 H        -0.482928        -0.762991         0.200769
 H        -0.199051         0.946138         0.754730
 H        -0.445575         0.568947        -1.042073
 H         1.726851         0.872190         2.159601
 H         1.505664        -0.878857         2.013522
 H         4.195000        -0.826101         1.844320
 H         2.669218         2.634044         0.861393
 H         4.100793         2.433386        -0.356740
 H         2.201124         1.280751        -1.488182
 H         4.099041        -0.878544        -0.872776
