19
Iteration:  2910charge 0 multiplicity 1
 C         0.067210         0.380324         0.012690
 C         1.464736         0.060987         0.182417
 C         1.983934        -0.079783         1.554327
 C         3.439465        -0.149404         1.347548
 O         4.053376         1.305789         1.126543
 C         3.182059         1.897424         0.120748
 C         2.577954         0.722390        -0.651318
 C         3.279990        -0.603344        -0.169842
 O         1.963653        -1.319486        -0.321711
 H        -0.209874         1.140984         0.636152
 H        -0.083666         0.653993        -1.074356
 H        -0.448817        -0.553497         0.299666
 H         1.662307         0.859676         2.159907
 H         1.530110        -0.911321         2.095252
 H         4.094202        -0.536881         2.185096
 H         2.528847         2.642461         0.538568
 H         3.763977         2.661149        -0.445246
 H         2.474368         0.656960        -1.689697
 H         4.177984        -1.078400        -0.738443
