19
Iteration:  3677
 C        -0.007715         0.244566         0.000327
 C         1.463294         0.064522         0.154611
 C         2.008858        -0.102407         1.558541
 C         3.474681        -0.128820         1.243842
 O         4.001194         1.156965         1.247349
 C         3.257413         1.946869         0.215895
 C         2.614956         0.787174        -0.564440
 C         3.241926        -0.503690        -0.233228
 O         1.978826        -1.196546        -0.390403
 H        -0.516264        -0.383497        -0.795025
 H        -0.519416         0.056800         0.951730
 H        -0.207245         1.339388        -0.260212
 H         1.700722         0.743366         2.190692
 H         1.653939        -1.236512         1.689412
 H         4.176324        -0.715920         1.986177
 H         2.633074         2.782326         0.585090
 H         4.034502         2.484603        -0.359297
 H         2.419809         0.892571        -1.634677
 H         4.009530        -0.965907        -0.963725
