19
Iteration:   759charge 0 multiplicity 1
 C        -0.019538         0.366016         0.004230
 C         1.452594        -0.022249         0.172920
 C         1.977275        -0.271124         1.515088
 C         3.524702        -0.184184         1.170761
 O         3.914915         1.186568         1.365868
 C         3.248014         1.907855         0.336411
 C         2.543125         0.859234        -0.532363
 C         3.336258        -0.459739        -0.346047
 O         2.056860        -1.156220        -0.513796
 H        -0.073006         0.953774        -0.985742
 H        -0.752481        -0.545725         0.212957
 H        -0.300022         0.967480         0.827603
 H         1.773609         0.553822         2.201797
 H         1.697567        -1.218052         2.062194
 H         4.148685        -0.887466         1.608565
 H         2.557003         2.635052         0.923709
 H         4.031965         2.466115        -0.228957
 H         2.117459         1.001380        -1.542946
 H         4.207621        -0.699759        -0.961635
