19
Iteration:  2809
 C        -0.113556         0.166448        -0.052622
 C         1.401811         0.029337         0.119915
 C         1.920614         0.059464         1.623791
 C         3.447371        -0.075008         1.280702
 O         4.159047         1.159028         1.098237
 C         3.319835         1.880795         0.206718
 C         2.543541         0.799518        -0.574859
 C         3.286618        -0.542289        -0.228757
 O         2.022750        -1.216265        -0.269967
 H        -0.515443         1.173621        -0.110103
 H        -0.345369        -0.226231        -0.987161
 H        -0.573829        -0.472613         0.715667
 H         1.895213         1.009063         2.116216
 H         1.453468        -0.855856         2.133138
 H         4.047904        -0.638943         1.981269
 H         2.704782         2.588820         0.769964
 H         4.025896         2.397335        -0.485078
 H         2.258884         1.093761        -1.557797
 H         4.176006        -0.911257        -0.722903
