19
Iteration:  2141charge 0 multiplicity 1
 C        -0.101286         0.170405        -0.013239
 C         1.456847         0.071361         0.161792
 C         1.939402        -0.015733         1.669465
 C         3.462978        -0.136244         1.335627
 O         4.052881         1.190955         1.231985
 C         3.361509         1.914131         0.110053
 C         2.599152         0.766775        -0.620567
 C         3.248605        -0.530623        -0.269909
 O         2.007902        -1.173416        -0.388781
 H        -0.396515         1.124008        -0.136987
 H        -0.504283        -0.398142        -0.895926
 H        -0.609667        -0.131493         0.849885
 H         1.733229         0.893827         2.194653
 H         1.440410        -0.828249         2.098482
 H         4.231588        -0.695035         1.936641
 H         2.712643         2.714431         0.513977
 H         4.193178         2.313952        -0.506657
 H         2.212937         0.883713        -1.621812
 H         4.116730        -0.974480        -0.796234
