19
Iteration:  4035
 C         0.000596         0.446193        -0.112693
 C         1.450027        -0.038181         0.334772
 C         2.070084        -0.090605         1.626740
 C         3.545476        -0.156620         1.191393
 O         3.953079         1.187738         1.244934
 C         3.215469         1.891721         0.144549
 C         2.427051         0.777469        -0.522672
 C         3.252986        -0.467429        -0.300109
 O         2.076167        -1.327418        -0.351599
 H        -0.025945         1.488065        -0.520261
 H        -0.260264        -0.072362        -0.978107
 H        -0.866097         0.371772         0.582493
 H         1.951430         0.795184         2.390213
 H         1.908347        -1.074596         2.055240
 H         4.138659        -0.788476         1.846316
 H         2.646309         2.702369         0.615350
 H         3.993874         2.270504        -0.553262
 H         2.207975         1.036001        -1.494683
 H         4.002294        -0.789777        -0.969076
