19
Iteration:  3282charge 0 multiplicity 1
 C        -0.087386         0.096989        -0.164055
 C         1.364971         0.034252         0.237592
 C         1.969500         0.056162         1.708654
 C         3.486536        -0.010872         1.328102
 O         4.106461         1.172985         1.162097
 C         3.464686         1.924111        -0.013023
 C         2.560561         0.764699        -0.620308
 C         3.223413        -0.553677        -0.199673
 O         1.922774        -1.200575        -0.197225
 H        -0.533816        -0.880445        -0.460888
 H        -0.545089         0.535985         0.801255
 H        -0.078129         0.861938        -0.926135
 H         1.593283         0.900562         2.377932
 H         1.551414        -0.882326         1.959281
 H         4.040250        -0.692512         2.022972
 H         2.904799         2.862751         0.247957
 H         4.305014         2.243182        -0.687940
 H         2.193500         0.850779        -1.720982
 H         4.020153        -1.034154        -0.765570
