19
Iteration:   877
 C        -0.210367        -0.000930        -0.046618
 C         1.394663         0.137061         0.214603
 C         1.894643        -0.039125         1.647818
 C         3.422003        -0.189491         1.230079
 O         4.107724         1.139866         1.328885
 C         3.454589         1.898163         0.231326
 C         2.668688         0.926250        -0.565613
 C         3.269600        -0.420537        -0.294790
 O         2.018552        -1.141384        -0.538847
 H        -0.574944        -0.560631         0.920481
 H        -0.669627         1.066235        -0.036774
 H        -0.408865        -0.497223        -0.959157
 H         1.685233         0.709284         2.393607
 H         1.487228        -1.086949         1.974061
 H         4.040589        -0.843220         1.745890
 H         2.817393         2.613995         0.700573
 H         4.217332         2.346139        -0.385482
 H         2.263704         1.382408        -1.523301
 H         4.107082        -0.774867        -0.869293
