19
Iteration:  2500
 C        -0.121763         0.049631        -0.161450
 C         1.381300         0.093357         0.179216
 C         1.938616         0.087071         1.709251
 C         3.499654        -0.091915         1.255186
 O         4.229982         1.080074         1.087766
 C         3.354968         1.965915         0.174599
 C         2.529091         0.910163        -0.607620
 C         3.249715        -0.519416        -0.222753
 O         1.921359        -1.262748        -0.185381
 H        -0.710745         0.777362         0.471811
 H        -0.237441         0.272586        -1.283801
 H        -0.428073        -0.978528        -0.090058
 H         1.720050         1.152369         2.013856
 H         1.508808        -0.778693         2.315979
 H         4.147999        -0.744852         1.856140
 H         2.859145         2.681475         0.840832
 H         4.029134         2.559900        -0.484003
 H         2.381468         1.144294        -1.674742
 H         4.038567        -1.040782        -0.711820
