19
Iteration:  3460
 C        -0.070974         0.156885        -0.115471
 C         1.386116         0.000928         0.166374
 C         1.914724         0.076812         1.599180
 C         3.486836        -0.081155         1.315635
 O         4.190003         1.119871         1.121197
 C         3.333150         1.947422         0.204659
 C         2.630364         0.823873        -0.595214
 C         3.255567        -0.519766        -0.195106
 O         1.920204        -1.208724        -0.281500
 H        -0.646366         0.492348         0.748068
 H        -0.291058         0.641766        -0.985546
 H        -0.511291        -0.827378        -0.175206
 H         1.626424         0.941893         2.063439
 H         1.517929        -0.747428         2.220864
 H         4.088393        -0.646053         1.996318
 H         2.617199         2.574237         0.711131
 H         3.985302         2.530280        -0.477913
 H         2.414936         0.702143        -1.615378
 H         3.918689        -1.035776        -0.875536
