19
Iteration:  3431
 C        -0.103861         0.236850        -0.031001
 C         1.454213         0.078659         0.150107
 C         1.936962         0.102741         1.648538
 C         3.424765        -0.126276         1.324698
 O         4.113879         1.174939         1.214837
 C         3.299763         1.908233         0.106468
 C         2.668710         0.749450        -0.633992
 C         3.216850        -0.564913        -0.248789
 O         2.026800        -1.246176        -0.336503
 H        -0.443405         0.239686         1.010530
 H        -0.531454         1.054589        -0.697229
 H        -0.443105        -0.780570        -0.452402
 H         1.727461         0.999907         2.338293
 H         1.473771        -0.714009         2.209341
 H         4.063823        -0.785765         1.989795
 H         2.495660         2.596959         0.448094
 H         3.961498         2.387094        -0.611362
 H         2.361552         0.708369        -1.679080
 H         4.028019        -1.118484        -0.796094
