19
Iteration:  3621charge 0 multiplicity 1
 C        -0.104201         0.078390        -0.129708
 C         1.410800         0.046031         0.209652
 C         1.907097         0.014233         1.631038
 C         3.404892        -0.199253         1.297021
 O         4.247688         1.204355         1.140580
 C         3.392877         1.916139         0.245843
 C         2.527374         0.878620        -0.517980
 C         3.222126        -0.474971        -0.258550
 O         1.976580        -1.204072        -0.367577
 H        -0.175472         0.424829        -1.216716
 H        -0.464471        -0.937140        -0.048581
 H        -0.637893         0.821542         0.498656
 H         1.567168         0.877704         2.289395
 H         1.313678        -0.839379         2.059908
 H         4.139530        -0.641806         1.888500
 H         2.969553         2.810266         0.733697
 H         4.112421         2.233184        -0.477200
 H         2.137478         1.127988        -1.469925
 H         4.030778        -0.928539        -0.747783
