19
Iteration:   920charge 0 multiplicity 1
 C         0.030272         0.375290        -0.058081
 C         1.490766         0.047643         0.197863
 C         1.944531        -0.110041         1.624673
 C         3.455035        -0.156024         1.253838
 O         4.027863         1.192124         1.258245
 C         3.183574         1.923557         0.310517
 C         2.545397         0.790962        -0.550661
 C         3.275739        -0.525768        -0.403629
 O         2.057553        -1.272688        -0.422004
 H        -0.488011        -0.592773        -0.225253
 H        -0.543491         0.730183         0.803753
 H         0.023204         0.999768        -0.868491
 H         1.753850         0.745240         2.310878
 H         1.579142        -1.135103         2.090879
 H         4.029799        -0.830194         1.791847
 H         2.439462         2.606588         0.744716
 H         3.843553         2.521551        -0.331304
 H         2.452446         1.027251        -1.652882
 H         4.148466        -0.870464        -0.933054
