19
Iteration:  1273charge 0 multiplicity 1
 C         0.020695         0.486132        -0.041034
 C         1.501473         0.025941         0.264413
 C         1.973247        -0.169433         1.680469
 C         3.481405        -0.156546         1.204284
 O         3.939691         1.259963         1.220236
 C         3.172717         1.952615         0.044929
 C         2.598521         0.709285        -0.587963
 C         3.344200        -0.563985        -0.220495
 O         2.019276        -1.281289        -0.334270
 H        -0.044416         1.536776        -0.328326
 H        -0.414742        -0.057161        -0.981021
 H        -0.557675         0.164482         0.886953
 H         1.855536         0.626314         2.385617
 H         1.557174        -1.155424         2.095263
 H         4.235418        -0.774405         1.732700
 H         2.370286         2.532448         0.490360
 H         3.900075         2.361543        -0.650191
 H         2.182840         0.647638        -1.589028
 H         4.171768        -0.886349        -0.744071
