19
Iteration:  4726charge 0 multiplicity 1
 C        -0.091174         0.238766         0.018360
 C         1.458241         0.027814         0.184429
 C         1.986930         0.124731         1.663737
 C         3.466968        -0.006052         1.317946
 O         4.083128         1.273899         1.066473
 C         3.414514         1.834369        -0.084527
 C         2.531333         0.665930        -0.718443
 C         3.283788        -0.594521        -0.081505
 O         1.920560        -1.307645        -0.167499
 H        -0.491070        -0.686203        -0.369493
 H        -0.619959         0.475434         0.941554
 H        -0.386964         0.976619        -0.655200
 H         1.711160         1.056971         2.117818
 H         1.403881        -0.680860         2.184253
 H         4.104157        -0.518700         2.144995
 H         2.671320         2.673493         0.183997
 H         4.239265         2.305559        -0.644872
 H         2.295138         0.701712        -1.782955
 H         4.115885        -1.194737        -0.496787
