19
Iteration:  3928charge 0 multiplicity 1
 C        -0.092773         0.052733        -0.126044
 C         1.392866         0.101872         0.256687
 C         1.937319        -0.023707         1.699095
 C         3.445317        -0.064523         1.215444
 O         4.143308         1.197577         1.210332
 C         3.474611         1.897727         0.047029
 C         2.559408         0.802293        -0.464365
 C         3.216662        -0.462926        -0.294513
 O         1.969830        -1.169100        -0.298577
 H        -0.750798         0.431031         0.649822
 H        -0.545196         0.589698        -0.961115
 H        -0.633848        -0.901814        -0.367277
 H         1.619333         0.608485         2.411556
 H         1.503537        -0.937336         2.116371
 H         3.994238        -0.848446         1.706802
 H         3.087690         2.844610         0.468526
 H         4.260741         2.173056        -0.623568
 H         2.189185         0.845544        -1.466086
 H         3.977021        -0.831372        -0.911840
