19
Iteration:   732charge 0 multiplicity 1
 C        -0.089625         0.119700        -0.019996
 C         1.443463         0.130589         0.211577
 C         1.964153        -0.231365         1.590159
 C         3.463889        -0.179706         1.202257
 O         3.962416         1.101265         1.341432
 C         3.410210         1.957366         0.311564
 C         2.533400         1.015110        -0.520794
 C         3.289266        -0.445942        -0.319103
 O         2.027065        -1.158869        -0.597599
 H        -0.189557        -0.164843        -1.079581
 H        -0.552611        -0.452884         0.760087
 H        -0.589363         1.165646         0.152451
 H         1.764493         0.442204         2.450999
 H         1.640118        -1.193245         1.878159
 H         4.094282        -0.948933         1.811614
 H         2.925546         2.682349         0.961270
 H         4.184968         2.496924        -0.260960
 H         2.211046         1.210848        -1.550207
 H         4.206514        -0.640367        -0.892844
