19
Iteration:  4983charge 0 multiplicity 1
 C         0.010087         0.337752        -0.017932
 C         1.504969        -0.030634         0.274516
 C         1.996489         0.122017         1.635221
 C         3.480913         0.036567         1.310114
 O         3.983270         1.302299         1.095765
 C         3.316961         1.843430        -0.131413
 C         2.589674         0.643763        -0.674813
 C         3.175293        -0.654452        -0.172208
 O         1.964420        -1.379404        -0.102201
 H        -0.520301        -0.468020        -0.489356
 H        -0.462440         0.619026         0.972727
 H         0.042244         1.216031        -0.650380
 H         1.639355         1.054520         2.059578
 H         1.673206        -0.678070         2.330878
 H         4.170290        -0.417084         1.939926
 H         2.630009         2.708311        -0.023146
 H         4.128153         2.348618        -0.740183
 H         2.295642         0.486556        -1.737815
 H         4.052088        -1.160603        -0.628645
