19
Iteration:  1661charge 0 multiplicity 1
 C        -0.074852         0.098775        -0.171987
 C         1.399139         0.104881         0.231323
 C         1.935851         0.082021         1.673074
 C         3.512320        -0.121171         1.349789
 O         4.190398         1.085931         1.065412
 C         3.315262         1.951853         0.238467
 C         2.533778         0.834255        -0.618358
 C         3.237391        -0.508744        -0.232184
 O         1.945426        -1.227228        -0.315763
 H        -0.625311         0.845505         0.353077
 H        -0.115065         0.143225        -1.281411
 H        -0.379589        -0.930963         0.242100
 H         1.760216         1.080079         2.201308
 H         1.516062        -0.730498         2.203798
 H         4.112747        -0.637045         2.099939
 H         2.654836         2.432516         0.942057
 H         4.000135         2.619516        -0.358794
 H         2.289554         1.076022        -1.571505
 H         4.016197        -0.879218        -0.864239
