19
Iteration:  3190charge 0 multiplicity 1
 C        -0.002634         0.247851        -0.150491
 C         1.391293         0.007970         0.180654
 C         1.984344         0.055113         1.664419
 C         3.460379        -0.045118         1.286168
 O         4.093024         1.206417         1.160467
 C         3.287201         1.857757         0.111280
 C         2.561627         0.740902        -0.610345
 C         3.206560        -0.513260        -0.205474
 O         1.980731        -1.307496        -0.231180
 H        -0.575745         0.184660         0.799320
 H        -0.062593         1.261528        -0.479409
 H        -0.427235        -0.449994        -0.938355
 H         2.084940         1.025489         2.189680
 H         1.584536        -0.772904         2.390483
 H         4.176478        -0.735352         1.792747
 H         2.618511         2.672559         0.465331
 H         4.045876         2.380236        -0.422055
 H         2.295556         0.841308        -1.672964
 H         4.118669        -0.946520        -0.699194
