19
Iteration:  4682charge 0 multiplicity 1
 C         0.022954         0.460405        -0.162168
 C         1.443565        -0.002070         0.274137
 C         2.024598         0.064875         1.711969
 C         3.564517        -0.063106         1.232894
 O         3.924504         1.269750         1.127158
 C         3.204628         1.823962        -0.104768
 C         2.587984         0.654698        -0.657526
 C         3.262522        -0.606396        -0.136984
 O         1.989666        -1.380619        -0.069844
 H        -0.656544        -0.316244        -0.353664
 H        -0.379695         1.151514         0.626159
 H         0.101268         1.053599        -0.989255
 H         2.020703         0.998902         2.185063
 H         1.831242        -0.768900         2.426733
 H         4.353599        -0.661241         1.831496
 H         2.588152         2.626269         0.316554
 H         3.688712         2.332601        -0.985256
 H         2.176971         0.604240        -1.624000
 H         4.022394        -1.179754        -0.626547
