19
Iteration:  1168
 C        -0.135276         0.031988        -0.118970
 C         1.356343         0.082411         0.205293
 C         1.979825         0.060475         1.703007
 C         3.401095        -0.092003         1.231656
 O         4.096943         1.134366         1.206494
 C         3.471487         1.922731         0.094344
 C         2.642725         0.848607        -0.576456
 C         3.226203        -0.519492        -0.224907
 O         1.935995        -1.144893        -0.305626
 H        -0.616670         0.497724         0.773990
 H        -0.365036         0.480442        -1.074183
 H        -0.319330        -1.127892        -0.126286
 H         1.755335         0.906613         2.453020
 H         1.686379        -0.850900         2.152385
 H         4.033629        -0.743440         1.750852
 H         2.924986         2.813587         0.299370
 H         4.301031         2.269912        -0.501596
 H         2.331723         0.961340        -1.669575
 H         4.135763        -0.987176        -0.631208
