19
Iteration:  4678
 C         0.030817         0.447645        -0.140099
 C         1.466619        -0.017182         0.284544
 C         2.012368         0.087845         1.674941
 C         3.558558        -0.075200         1.195167
 O         3.955286         1.272866         1.154050
 C         3.171256         1.825744        -0.095777
 C         2.606487         0.613310        -0.624623
 C         3.241178        -0.593484        -0.158587
 O         2.006148        -1.353519        -0.061436
 H        -0.745409        -0.310904        -0.311257
 H        -0.344501         1.152545         0.618278
 H         0.049121         1.065708        -1.099816
 H         1.925812         1.088551         2.206408
 H         1.753376        -0.700254         2.408947
 H         4.182039        -0.623146         1.788954
 H         2.456509         2.598710         0.266983
 H         3.799462         2.164786        -0.920099
 H         2.255614         0.596352        -1.677765
 H         3.944383        -1.150392        -0.771655
