19
Iteration:  3682
 C        -0.026160         0.285905         0.001944
 C         1.440223         0.038345         0.148384
 C         2.054684        -0.134024         1.587705
 C         3.485247        -0.148458         1.295309
 O         3.986110         1.178179         1.210450
 C         3.275111         1.945492         0.232560
 C         2.578565         0.769749        -0.584589
 C         3.276440        -0.476732        -0.223944
 O         1.982557        -1.195401        -0.406439
 H        -0.407096        -0.303543        -0.797433
 H        -0.754569         0.201993         0.836598
 H        -0.112222         1.281246        -0.359029
 H         1.645886         0.623357         2.267575
 H         1.815920        -1.145610         1.754638
 H         4.043754        -0.795708         1.912647
 H         2.555203         2.705396         0.603678
 H         3.989508         2.475456        -0.430880
 H         2.457203         0.910939        -1.674680
 H         3.965818        -0.978312        -0.857683
