19
Iteration:  4497charge 0 multiplicity 1
 C         0.013235         0.317980        -0.051317
 C         1.435442        -0.019698         0.213209
 C         1.937192         0.057287         1.706926
 C         3.447987        -0.064947         1.287256
 O         4.014886         1.313316         1.085739
 C         3.295788         1.852744        -0.000070
 C         2.552642         0.659350        -0.629417
 C         3.242340        -0.634739        -0.220700
 O         2.019814        -1.291696        -0.167579
 H        -0.115116         1.285646         0.481699
 H        -0.205984         0.516353        -1.188326
 H        -0.743884        -0.354088         0.395974
 H         1.897442         0.928581         2.248954
 H         1.626130        -0.822346         2.271586
 H         4.165559        -0.540976         1.931832
 H         2.774807         2.797970         0.187024
 H         4.141500         2.151403        -0.646154
 H         2.449565         0.786461        -1.691897
 H         4.061610        -1.052183        -0.742109
