19
Iteration:  2993
 C        -0.170863         0.057286        -0.026299
 C         1.438240         0.136532         0.162061
 C         1.915344         0.072294         1.612155
 C         3.412972        -0.138465         1.258460
 O         4.097992         1.150901         1.184716
 C         3.378878         1.970285         0.122405
 C         2.605964         0.838881        -0.555790
 C         3.333882        -0.522664        -0.171378
 O         1.979855        -1.252663        -0.389776
 H        -0.651842         0.987656        -0.552408
 H        -0.341935        -0.864692        -0.571831
 H        -0.589834         0.024210         1.024482
 H         1.914439         1.011929         2.056317
 H         1.484479        -0.780817         2.224849
 H         4.125371        -0.733501         1.906490
 H         2.727278         2.698420         0.720642
 H         4.215728         2.240795        -0.469215
 H         2.359815         1.121403        -1.652949
 H         4.244925        -0.983495        -0.622578
