19
Iteration:  2281
 C         0.021290         0.375064         0.019764
 C         1.454761         0.058671         0.203683
 C         1.982307        -0.159188         1.642256
 C         3.444931        -0.071547         1.302965
 O         3.954035         1.276383         1.159437
 C         3.358722         1.860277         0.067071
 C         2.572128         0.746057        -0.643754
 C         3.274877        -0.545989        -0.222174
 O         1.970041        -1.273655        -0.307102
 H        -0.518422         0.951002         0.726985
 H        -0.083478         0.770291        -1.084156
 H        -0.491272        -0.660977         0.054550
 H         1.725651         0.755102         2.349144
 H         1.809975        -1.131973         2.050604
 H         3.931695        -0.548824         2.174457
 H         2.699802         2.600073         0.394845
 H         4.117229         2.255178        -0.661738
 H         2.304468         0.778858        -1.651031
 H         4.114755        -0.908429        -0.821937
