19
Iteration:  1886
 C        -0.091611         0.207428         0.029509
 C         1.445424         0.060504         0.191510
 C         1.968527        -0.058535         1.583690
 C         3.433333        -0.131067         1.317905
 O         4.017235         1.212151         1.171975
 C         3.353217         1.900683         0.099237
 C         2.591382         0.798888        -0.583358
 C         3.285993        -0.559327        -0.244073
 O         2.009667        -1.161790        -0.342981
 H        -0.475985         1.115382         0.506945
 H        -0.288732         0.274679        -1.009217
 H        -0.669101        -0.762939         0.365229
 H         1.748874         0.680930         2.343583
 H         1.678721        -0.994411         1.935482
 H         4.031700        -0.709613         2.022211
 H         2.748941         2.750868         0.545725
 H         4.096253         2.353623        -0.599589
 H         2.468613         0.906636        -1.736899
 H         4.101663        -0.977462        -0.764503
