19
Iteration:  1158
 C        -0.085040         0.145131        -0.041685
 C         1.417126         0.043876         0.197370
 C         1.982911         0.049636         1.686577
 C         3.406459        -0.086918         1.252666
 O         4.058270         1.140037         1.247497
 C         3.398315         1.853715         0.060267
 C         2.587950         0.838321        -0.636729
 C         3.285248        -0.450839        -0.201504
 O         1.963048        -1.211549        -0.328910
 H        -0.862771         0.588863         0.670064
 H        -0.373294         0.552479        -1.078424
 H        -0.504433        -0.925643        -0.210853
 H         1.830973         0.962235         2.331108
 H         1.673962        -0.787993         2.151718
 H         4.010733        -0.788636         1.793435
 H         2.905109         2.642024         0.523469
 H         4.196675         2.104223        -0.634016
 H         2.371279         1.059406        -1.748320
 H         4.201441        -0.912260        -0.688365
