19
Iteration:  1272charge 0 multiplicity 1
 C         0.010664         0.487643        -0.041315
 C         1.495919         0.027380         0.266555
 C         1.979249        -0.174414         1.689662
 C         3.478413        -0.149505         1.213490
 O         3.942513         1.256590         1.218494
 C         3.161009         1.953440         0.050130
 C         2.620347         0.715179        -0.601058
 C         3.344990        -0.561293        -0.222435
 O         2.013123        -1.287989        -0.333673
 H        -0.056494         1.555155        -0.328692
 H        -0.426870        -0.068338        -1.017795
 H        -0.538509         0.194657         0.874835
 H         1.835596         0.590755         2.340614
 H         1.582852        -1.143316         2.079010
 H         4.284982        -0.766919         1.733192
 H         2.394493         2.531746         0.492270
 H         3.886766         2.370936        -0.661472
 H         2.169508         0.648484        -1.562389
 H         4.196671        -0.929219        -0.757374
