19
Iteration:    88charge 0 multiplicity 1
 C        -0.061702         0.214214         0.052681
 C         1.464178         0.068871         0.104521
 C         2.087712        -0.630015         1.324013
 C         3.616088        -0.368853         0.987459
 O         4.026538         0.883759         1.506655
 C         3.061119         1.907333         0.902272
 C         2.410572         1.169013        -0.240455
 C         3.329613        -0.157512        -0.530217
 O         2.072867        -0.818274        -0.914838
 H        -0.471104        -0.315614        -0.855296
 H        -0.506802        -0.131658         1.003482
 H        -0.144698         1.309649        -0.136599
 H         1.985728        -0.212512         2.323112
 H         1.700545        -1.611776         1.293118
 H         4.265143        -1.156953         1.378550
 H         2.425946         2.328314         1.724652
 H         3.730078         2.848752         0.576151
 H         2.141858         1.736120        -1.091990
 H         4.101010        -0.211720        -1.294383
