19
Iteration:  1269charge 0 multiplicity 1
 C        -0.015376         0.483866        -0.051540
 C         1.473082         0.031550         0.263275
 C         2.004874        -0.197988         1.704028
 C         3.479217        -0.130788         1.250351
 O         3.948220         1.246828         1.209415
 C         3.138838         1.941989         0.064513
 C         2.676259         0.731543        -0.632340
 C         3.341986        -0.553463        -0.232333
 O         1.997297        -1.305765        -0.330816
 H        -0.082095         1.585467        -0.295349
 H        -0.410959        -0.052193        -0.998329
 H        -0.531751         0.297111         0.837980
 H         1.737793         0.636993         2.341460
 H         1.664466        -1.116972         2.037458
 H         4.361066        -0.693065         1.731084
 H         2.417139         2.606905         0.519696
 H         3.843597         2.442821        -0.649431
 H         2.135195         0.686583        -1.569582
 H         4.256397        -1.071249        -0.794211
