19
Iteration:  1212charge 0 multiplicity 1
 C        -0.100303         0.135030        -0.101437
 C         1.382769         0.006642         0.205086
 C         1.983732         0.122432         1.674477
 C         3.391385        -0.132547         1.240221
 O         4.085402         1.118906         1.145698
 C         3.387995         1.878140         0.193710
 C         2.557537         0.843203        -0.593788
 C         3.221789        -0.506780        -0.235041
 O         2.079070        -1.215652        -0.321842
 H        -0.316668         1.132072         0.355492
 H        -0.361283         0.064306        -1.123518
 H        -0.822252        -0.625742         0.368817
 H         1.870915         1.138223         2.255392
 H         1.581288        -0.619814         2.367213
 H         4.047543        -0.680206         1.860676
 H         2.820185         2.593466         0.825816
 H         4.017173         2.494323        -0.460381
 H         2.290489         0.833886        -1.714710
 H         4.052633        -0.877591        -0.910897
