19
Iteration:  3831charge 0 multiplicity 1
 C        -0.006759         0.221368        -0.077917
 C         1.453057         0.101808         0.237946
 C         2.019191        -0.082154         1.673079
 C         3.486192        -0.131145         1.322099
 O         4.059510         1.217224         1.230826
 C         3.293459         1.865701         0.142418
 C         2.559363         0.769680        -0.617286
 C         3.247498        -0.508082        -0.306670
 O         1.924715        -1.198603        -0.359533
 H        -0.175621         1.226294        -0.495247
 H        -0.342462        -0.524321        -0.881631
 H        -0.874388         0.225909         0.656420
 H         1.854949         0.580335         2.455722
 H         1.668369        -1.115052         2.028651
 H         4.307083        -0.595471         1.870617
 H         2.485293         2.535425         0.518541
 H         3.982240         2.371014        -0.542314
 H         2.294423         1.123276        -1.606915
 H         4.135167        -0.907558        -0.819015
