19
Iteration:  1715
 C        -0.030566         0.189925        -0.005477
 C         1.404722         0.070549         0.201813
 C         1.958495        -0.063678         1.656478
 C         3.413222        -0.156751         1.217279
 O         4.030011         1.222151         1.245208
 C         3.371168         1.878606         0.129275
 C         2.588446         0.814779        -0.619705
 C         3.241929        -0.485389        -0.245586
 O         2.012969        -1.197272        -0.366109
 H        -0.335505         1.177376        -0.220701
 H        -0.367967        -0.459511        -0.815574
 H        -0.464306        -0.073366         0.988665
 H         1.664098         0.780478         2.397993
 H         1.706758        -1.049018         1.998751
 H         4.054107        -0.873357         1.744366
 H         2.768792         2.779220         0.448000
 H         4.124804         2.363030        -0.658093
 H         2.408702         0.993337        -1.630537
 H         4.089169        -0.947136        -0.720166
