19
Iteration:  1253
 C         0.002511         0.439703        -0.040803
 C         1.442270        -0.016629         0.155344
 C         2.058901        -0.139547         1.662193
 C         3.540138        -0.066006         1.315180
 O         3.952230         1.283647         1.149094
 C         3.236916         1.894620         0.177662
 C         2.574884         0.736126        -0.672205
 C         3.249611        -0.629693        -0.247537
 O         1.988020        -1.272991        -0.311920
 H         0.081055         1.467007        -0.316455
 H        -0.402095        -0.001075        -0.917453
 H        -0.770157         0.220552         0.771030
 H         1.757264         0.552749         2.562154
 H         1.817449        -1.234793         2.000141
 H         4.115843        -0.565139         2.032958
 H         2.241035         2.337599         0.599579
 H         3.928236         2.630260        -0.230726
 H         2.622964         0.991271        -1.742091
 H         4.007189        -1.130485        -0.748711
