19
Iteration:  3691
 C        -0.071803         0.377471        -0.048294
 C         1.413992        -0.010930         0.188965
 C         2.019240        -0.179006         1.664740
 C         3.497390        -0.148663         1.293072
 O         4.013472         1.238649         1.197283
 C         3.261231         1.884295         0.193431
 C         2.531853         0.842849        -0.595285
 C         3.331310        -0.518258        -0.242278
 O         2.001525        -1.219705        -0.434643
 H        -0.323794        -0.270856        -0.832620
 H        -0.769678         0.295322         0.772424
 H        -0.085693         1.356735        -0.473244
 H         1.742756         0.417617         2.530131
 H         1.743099        -1.191810         2.184600
 H         4.211490        -0.832720         1.865692
 H         2.527176         2.479181         0.750540
 H         3.966576         2.503280        -0.426844
 H         2.371262         0.996762        -1.702271
 H         4.283088        -0.964874        -0.720310
