19
Iteration:   748charge 0 multiplicity 1
 C         0.019700         0.269413        -0.003962
 C         1.435993        -0.010748         0.128526
 C         1.975267        -0.265489         1.620621
 C         3.444533        -0.247466         1.219868
 O         3.956137         1.151457         1.359686
 C         3.279891         1.932100         0.300163
 C         2.566386         0.917489        -0.509406
 C         3.267196        -0.371717        -0.389538
 O         2.053834        -1.120629        -0.509376
 H        -0.388616         0.394002        -1.064905
 H        -0.503280        -0.694033         0.352484
 H        -0.119801         1.120883         0.612960
 H         1.713290         0.494818         2.361022
 H         1.569926        -1.284648         1.915006
 H         4.178273        -0.851037         1.649878
 H         2.655092         2.842824         0.593080
 H         4.128753         2.370808        -0.275100
 H         2.366485         1.274768        -1.539282
 H         4.077388        -0.780310        -0.999102
