19
Iteration:  1266charge 0 multiplicity 1
 C        -0.025934         0.478331        -0.071071
 C         1.450485         0.032109         0.247975
 C         2.033678        -0.206254         1.704378
 C         3.494078        -0.116393         1.288279
 O         3.949339         1.241395         1.196010
 C         3.137871         1.923746         0.078050
 C         2.702555         0.740738        -0.652771
 C         3.339920        -0.556078        -0.248518
 O         1.987551        -1.315659        -0.327114
 H        -0.079256         1.557855        -0.236908
 H        -0.371693        -0.014303        -0.880742
 H        -0.634812         0.362888         0.869944
 H         1.653809         0.711538         2.407172
 H         1.698077        -1.211184         2.057298
 H         4.323899        -0.587376         1.740329
 H         2.403427         2.696069         0.541827
 H         3.801736         2.540119        -0.557408
 H         2.152247         0.768920        -1.642341
 H         4.177932        -1.133593        -0.750430
