19
Iteration:   435charge 0 multiplicity 1
 C        -0.015814         0.332194         0.146281
 C         1.510465        -0.003261         0.097042
 C         2.073002        -0.475053         1.526562
 C         3.463854        -0.320186         1.151623
 O         3.849970         1.033494         1.463831
 C         3.204697         1.923147         0.457974
 C         2.532648         1.054428        -0.460444
 C         3.266230        -0.289090        -0.466883
 O         2.113482        -1.018605        -0.700693
 H        -0.539430        -0.057655         1.007250
 H         0.002031         1.428407         0.155025
 H        -0.490623         0.048266        -0.779410
 H         1.627910         0.014169         2.389531
 H         1.958506        -1.484991         1.542645
 H         4.362608        -0.846761         1.538708
 H         2.485756         2.706573         0.820123
 H         3.964360         2.500438         0.025729
 H         2.402801         1.423958        -1.548567
 H         4.092456        -0.574596        -1.184672
