19
Iteration:  4046charge 0 multiplicity 1
 C        -0.040877         0.349251        -0.114253
 C         1.383071        -0.019120         0.220316
 C         2.068824        -0.177674         1.724334
 C         3.485303        -0.152307         1.159826
 O         3.959929         1.237242         1.244036
 C         3.284443         1.883143         0.167766
 C         2.535849         0.839423        -0.580264
 C         3.331916        -0.476157        -0.327012
 O         1.986205        -1.268651        -0.294837
 H         0.216688         1.405344        -0.257755
 H        -0.361647        -0.216244        -0.916625
 H        -0.732949         0.305320         0.758063
 H         1.986060         0.717540         2.496281
 H         1.637831        -1.053839         2.207538
 H         4.245461        -0.760476         1.618461
 H         2.656652         2.710853         0.525401
 H         3.961410         2.382203        -0.565861
 H         2.234321         0.948479        -1.552820
 H         4.137231        -0.836985        -0.899349
