19
Iteration:  1259
 C        -0.013739         0.465477        -0.042205
 C         1.428464         0.009034         0.191810
 C         2.056707        -0.182675         1.701766
 C         3.526663        -0.076112         1.323359
 O         3.942290         1.258903         1.156691
 C         3.185640         1.906177         0.135676
 C         2.646715         0.737147        -0.682128
 C         3.290155        -0.584709        -0.257697
 O         1.984542        -1.302733        -0.318478
 H         0.023047         1.580385        -0.233518
 H        -0.478904        -0.138495        -0.959975
 H        -0.760182         0.352345         0.706941
 H         1.720935         0.482091         2.415897
 H         1.812635        -1.143908         2.043621
 H         4.299276        -0.606099         2.020367
 H         2.374400         2.507839         0.500337
 H         3.868506         2.689194        -0.275703
 H         2.468943         0.994952        -1.730534
 H         4.099930        -1.249993        -0.740703
