19
Iteration:   593charge 0 multiplicity 1
 C        -0.038991         0.324584         0.100429
 C         1.448225         0.013314         0.171255
 C         1.980502        -0.355447         1.502372
 C         3.510393        -0.259380         1.166787
 O         3.876409         1.167682         1.425549
 C         3.310287         1.951174         0.406088
 C         2.565223         0.948267        -0.474373
 C         3.346824        -0.382531        -0.436000
 O         2.067664        -1.152901        -0.674017
 H        -0.390243         1.194851         0.726625
 H        -0.474156         0.345760        -0.916361
 H        -0.625395        -0.452055         0.603913
 H         1.687540         0.278793         2.327531
 H         1.476387        -1.375457         1.756146
 H         4.357137        -0.840831         1.621106
 H         2.762141         2.789062         0.902025
 H         4.082349         2.514271        -0.152805
 H         2.109611         1.202437        -1.444488
 H         4.147407        -0.709462        -1.087257
