19
Iteration:  4074charge 0 multiplicity 1
 C        -0.045001         0.139699         0.072296
 C         1.390723         0.167567         0.214419
 C         2.014637        -0.039062         1.565211
 C         3.432883        -0.109098         1.270183
 O         4.043939         1.194664         1.212513
 C         3.327612         1.900413         0.143954
 C         2.625684         0.853539        -0.575714
 C         3.297558        -0.587028        -0.240940
 O         1.932748        -1.190745        -0.430080
 H        -0.442358         1.206647         0.023224
 H        -0.194096        -0.198969        -1.075054
 H        -0.508469        -0.436859         0.870946
 H         1.680500         0.505945         2.385634
 H         1.621452        -1.040073         1.867474
 H         4.068845        -0.714958         2.028189
 H         2.626375         2.592957         0.664603
 H         4.089538         2.312378        -0.542967
 H         2.387950         0.899938        -1.714674
 H         4.219164        -1.032557        -0.814563
