19
Iteration:  2448
 C         0.004965         0.309269         0.045633
 C         1.447792         0.002816         0.156844
 C         1.968487        -0.055442         1.635411
 C         3.414427        -0.102031         1.273122
 O         3.935891         1.267963         1.165211
 C         3.337334         1.882600         0.057727
 C         2.630120         0.740954        -0.570541
 C         3.276969        -0.603386        -0.228746
 O         2.009818        -1.223856        -0.334030
 H        -0.022353         1.417751         0.496953
 H        -0.301505         0.249569        -1.030018
 H        -0.569525        -0.378231         0.644207
 H         1.791711         0.752083         2.290195
 H         1.543667        -1.098225         1.985604
 H         4.127595        -0.523167         1.994361
 H         2.622110         2.739488         0.474234
 H         4.054439         2.443677        -0.661716
 H         2.307716         0.913336        -1.701542
 H         4.057827        -1.257465        -0.620464
