19
Iteration:  3695
 C        -0.071167         0.410634        -0.094658
 C         1.414886        -0.016704         0.227097
 C         1.976969        -0.218747         1.720391
 C         3.507555        -0.146847         1.261465
 O         4.043205         1.243627         1.212264
 C         3.232834         1.865653         0.164293
 C         2.536109         0.856477        -0.580413
 C         3.339342        -0.541619        -0.260765
 O         2.019542        -1.237315        -0.442207
 H        -0.430165        -0.308727        -0.882060
 H        -0.709725         0.284066         0.825398
 H        -0.109302         1.442686        -0.470734
 H         1.825210         0.541331         2.543945
 H         1.706556        -1.110648         2.112200
 H         4.258963        -0.612370         1.791148
 H         2.539955         2.521014         0.745019
 H         3.897150         2.541309        -0.365819
 H         2.264349         1.025092        -1.606137
 H         4.221659        -0.870946        -0.660739
