19
Iteration:  3413
 C        -0.016894         0.255921        -0.014139
 C         1.379690         0.025376         0.188068
 C         1.971844         0.011574         1.609660
 C         3.454614        -0.108138         1.228068
 O         3.958316         1.206670         1.200831
 C         3.395262         1.832771         0.089311
 C         2.547716         0.780020        -0.634643
 C         3.360385        -0.523744        -0.215016
 O         1.987945        -1.267656        -0.234896
 H        -0.720705         0.242972         0.818972
 H         0.063409         1.243291        -0.576453
 H        -0.565241        -0.354933        -0.710542
 H         1.686736         1.068533         2.113124
 H         1.430366        -0.722562         2.233262
 H         4.155673        -0.770912         1.779278
 H         2.734170         2.642700         0.493480
 H         4.201674         2.308887        -0.523551
 H         2.278130         1.086308        -1.738887
 H         4.189475        -0.996986        -0.748094
