19
Iteration:  4949
 C        -0.205360         0.075527        -0.056865
 C         1.357823         0.111341         0.236433
 C         2.006243         0.317383         1.609552
 C         3.488962         0.042118         1.344920
 O         4.225192         1.126337         0.957701
 C         3.350007         1.879133        -0.008834
 C         2.613723         0.681197        -0.642485
 C         3.197620        -0.615763        -0.116945
 O         1.990620        -1.301838        -0.110535
 H        -0.449608        -0.728357        -0.656110
 H        -0.813409         0.017496         0.832345
 H        -0.542547         0.997297        -0.588014
 H         1.596368         1.269650         1.992487
 H         1.654086        -0.487520         2.208886
 H         3.938423        -0.469112         2.154138
 H         2.601336         2.454907         0.531924
 H         4.123059         2.422360        -0.606835
 H         2.408786         0.627017        -1.737617
 H         4.037895        -1.126346        -0.469350
