19
Iteration:   458charge 0 multiplicity 1
 C        -0.029037         0.363816         0.188732
 C         1.506954         0.010934         0.156077
 C         1.992655        -0.463094         1.460728
 C         3.495985        -0.328301         1.077894
 O         3.867494         1.145271         1.499082
 C         3.231098         1.959009         0.503641
 C         2.508277         0.971562        -0.461502
 C         3.391149        -0.331742        -0.442177
 O         2.071192        -1.100307        -0.775665
 H        -0.617457        -0.487643         0.412099
 H        -0.206482         1.114027         0.936609
 H        -0.267075         0.695817        -0.848642
 H         1.727162         0.276208         2.219646
 H         1.697011        -1.406399         1.726919
 H         4.375606        -0.804144         1.501749
 H         2.506819         2.746275         0.862310
 H         3.942941         2.539093         0.014771
 H         2.152577         1.179007        -1.468740
 H         4.209643        -0.695260        -1.132091
