19
Iteration:    76charge 0 multiplicity 1
 C        -0.069943         0.153176        -0.011374
 C         1.432746         0.005508         0.136287
 C         2.054647        -0.591879         1.391242
 C         3.569496        -0.395661         0.943810
 O         4.005313         0.883490         1.480822
 C         3.191041         1.871952         0.941770
 C         2.489238         1.190812        -0.223385
 C         3.330019        -0.044758        -0.560260
 O         2.053504        -0.791739        -0.887200
 H        -0.480362        -0.788917        -0.624231
 H        -0.622465         0.108688         0.944769
 H        -0.498396         1.046736        -0.465613
 H         1.645737        -0.000285         2.278243
 H         1.831283        -1.599784         1.486379
 H         4.362482        -1.097152         1.138298
 H         2.441504         2.220465         1.696057
 H         3.920028         2.755200         0.511456
 H         2.071993         1.809584        -1.024625
 H         4.131694        -0.123234        -1.260895
