19
Iteration:  3126charge 0 multiplicity 1
 C        -0.083647         0.143939         0.004481
 C         1.446520         0.071474         0.192358
 C         1.888685         0.018671         1.556650
 C         3.447396        -0.071927         1.307258
 O         4.088121         1.187888         1.144656
 C         3.395274         1.935505         0.140694
 C         2.619011         0.808055        -0.596836
 C         3.252539        -0.566646        -0.181630
 O         1.991412        -1.251861        -0.361011
 H        -0.527660         0.869569         0.642531
 H        -0.505260         0.329821        -0.981680
 H        -0.538853        -0.871516         0.128423
 H         1.853599         0.956073         2.091083
 H         1.394599        -0.676598         2.206528
 H         3.991256        -0.553528         2.149026
 H         2.730640         2.724272         0.582342
 H         4.104580         2.338402        -0.573520
 H         2.333667         1.092364        -1.531588
 H         4.013080        -1.192137        -0.724590
