19
Iteration:  1424
 C         0.035007         0.363697         0.020698
 C         1.463623         0.046176         0.142163
 C         2.042874        -0.134437         1.679584
 C         3.452296        -0.117263         1.287259
 O         3.908363         1.306711         1.219120
 C         3.263630         1.899481         0.028547
 C         2.583485         0.718256        -0.590093
 C         3.283452        -0.618631        -0.180042
 O         1.989088        -1.249374        -0.367032
 H        -0.035329         1.263888         0.618418
 H        -0.296824         0.666620        -1.033526
 H        -0.712688        -0.298783         0.307531
 H         1.872291         0.540893         2.457129
 H         1.588412        -1.128812         1.952398
 H         4.268903        -0.607486         1.816009
 H         2.624983         2.750650         0.196421
 H         4.053387         2.365908        -0.667168
 H         2.421043         0.805174        -1.657336
 H         4.065961        -1.100685        -0.672365
