19
Iteration:  4985charge 0 multiplicity 1
 C         0.014052         0.352873        -0.014568
 C         1.534887        -0.031371         0.288454
 C         2.000902         0.127155         1.634570
 C         3.461880         0.038734         1.308259
 O         3.965761         1.315763         1.097026
 C         3.324664         1.839310        -0.131881
 C         2.584042         0.641646        -0.683917
 C         3.179700        -0.666724        -0.171986
 O         1.959649        -1.386794        -0.104496
 H        -0.529655        -0.517331        -0.533424
 H        -0.504503         0.667437         0.986145
 H         0.095494         1.209617        -0.647563
 H         1.660538         1.025502         2.099498
 H         1.686165        -0.756812         2.300276
 H         4.195700        -0.444053         1.944175
 H         2.651440         2.730104        -0.015871
 H         4.103600         2.338532        -0.738472
 H         2.247987         0.499017        -1.719476
 H         4.088411        -1.177041        -0.690201
