19
Iteration:  2198
 C        -0.141121         0.095511        -0.116612
 C         1.423668         0.075131         0.205962
 C         2.007018         0.079883         1.665685
 C         3.438732        -0.152071         1.249594
 O         4.167841         1.140212         1.139533
 C         3.363972         1.888501         0.171904
 C         2.581225         0.831914        -0.497038
 C         3.214887        -0.487839        -0.181098
 O         1.965741        -1.203231        -0.365838
 H        -0.277494         1.045710        -0.708207
 H        -0.221606        -0.622180        -0.904009
 H        -0.891191        -0.127091         0.558039
 H         1.783547         0.930771         2.173032
 H         1.578939        -0.751659         2.316765
 H         3.997965        -0.828862         1.834481
 H         2.677600         2.673086         0.703693
 H         3.896741         2.524511        -0.501110
 H         2.243743         1.047938        -1.600901
 H         4.125715        -0.794846        -0.624019
