19
Iteration:   128
 C         0.085097         0.341311         0.161299
 C         1.455449        -0.013411         0.077484
 C         2.102505        -0.661302         1.324777
 C         3.577828        -0.400871         0.975694
 O         3.919820         0.927496         1.520071
 C         2.986679         1.917218         0.826779
 C         2.428392         1.123797        -0.284808
 C         3.349638        -0.130553        -0.572140
 O         2.133262        -0.874561        -0.881586
 H        -0.304934         1.268859        -0.475699
 H        -0.718509        -0.368698        -0.070029
 H        -0.181840         0.576795         1.168225
 H         1.913841        -0.050251         2.356996
 H         1.783946        -1.693434         1.496826
 H         4.310824        -1.067068         1.384881
 H         2.294589         2.309175         1.574203
 H         3.610251         2.753119         0.481214
 H         2.244776         1.647254        -1.311213
 H         4.080501        -0.273856        -1.338742
