19
Iteration:   477
 C        -0.039987         0.315667         0.033526
 C         1.432204         0.007807         0.156274
 C         2.062326        -0.428066         1.541219
 C         3.533328        -0.229949         1.171012
 O         3.941062         1.073865         1.426833
 C         3.206753         1.936021         0.492724
 C         2.574053         0.984234        -0.470280
 C         3.272428        -0.332261        -0.464630
 O         2.057737        -1.060865        -0.700159
 H        -0.705339        -0.601270        -0.274024
 H        -0.369761         0.421707         1.144833
 H        -0.272163         1.154193        -0.581344
 H         1.876213         0.146570         2.476843
 H         1.778238        -1.473777         1.695165
 H         4.164168        -1.020554         1.655527
 H         2.511970         2.549366         1.063560
 H         3.874838         2.746275        -0.011933
 H         2.289607         1.496327        -1.534741
 H         4.085777        -0.603706        -1.180351
