19
Iteration:  2030
 C        -0.087275         0.033223        -0.027965
 C         1.369306         0.092848         0.152174
 C         1.901240         0.083783         1.593133
 C         3.413469        -0.148567         1.282218
 O         4.167148         1.115462         1.252445
 C         3.443525         1.880173         0.080791
 C         2.522005         0.924193        -0.616322
 C         3.217763        -0.455171        -0.226032
 O         2.009819        -1.184644        -0.309696
 H        -0.494285         0.377137         0.823559
 H        -0.526660         0.468555        -0.921360
 H        -0.245361        -1.090502        -0.071492
 H         1.741052         0.929695         2.296195
 H         1.443017        -0.725213         1.973390
 H         4.064166        -0.693474         2.057075
 H         2.882301         2.698170         0.554917
 H         4.249092         2.174586        -0.597907
 H         2.302401         1.010260        -1.649102
 H         4.100673        -0.900758        -0.798024
