19
Iteration:  4078charge 0 multiplicity 1
 C        -0.047155         0.104642         0.087077
 C         1.396938         0.168200         0.172261
 C         1.989779        -0.016317         1.565738
 C         3.416574        -0.113565         1.254375
 O         4.070249         1.192380         1.204350
 C         3.342486         1.885565         0.165618
 C         2.595840         0.800109        -0.574121
 C         3.326411        -0.560205        -0.240395
 O         1.932080        -1.172244        -0.443925
 H        -0.473976         1.133459         0.079069
 H        -0.287739        -0.044680        -0.914499
 H        -0.575929        -0.545903         0.851576
 H         1.676349         0.702088         2.441756
 H         1.634001        -0.951371         1.899546
 H         3.970220        -0.694795         1.981110
 H         2.685148         2.601569         0.646391
 H         4.121030         2.282940        -0.503019
 H         2.451115         0.968219        -1.567757
 H         4.218380        -0.928129        -0.647339
