19
Iteration:  2657charge 0 multiplicity 1
 C        -0.140937         0.081745        -0.128865
 C         1.353668         0.055149         0.187064
 C         1.957694         0.125352         1.690176
 C         3.490251        -0.081552         1.349050
 O         4.213264         1.126995         1.078302
 C         3.323502         1.878677         0.138066
 C         2.558653         0.822349        -0.547652
 C         3.236132        -0.511638        -0.213341
 O         2.011583        -1.219421        -0.324290
 H        -0.699098         0.929545         0.382180
 H        -0.343913         0.104430        -1.167294
 H        -0.755181        -0.836817         0.171275
 H         2.056176         1.049529         2.212955
 H         1.397494        -0.554067         2.400080
 H         4.051275        -0.663590         2.057662
 H         2.675738         2.525939         0.669683
 H         4.011966         2.560060        -0.401710
 H         2.416080         0.987942        -1.596088
 H         3.958563        -1.004162        -0.883751
