19
Iteration:  3927
 C        -0.086743         0.057862        -0.125265
 C         1.381585         0.105664         0.254668
 C         1.947832        -0.038418         1.698807
 C         3.448050        -0.052507         1.207948
 O         4.137218         1.194318         1.208373
 C         3.467736         1.899343         0.047972
 C         2.567245         0.799128        -0.476073
 C         3.213341        -0.467169        -0.289528
 O         1.968027        -1.161773        -0.293898
 H        -0.743383         0.434136         0.675004
 H        -0.495226         0.562740        -0.951368
 H        -0.617569        -0.883816        -0.379341
 H         1.577269         0.630189         2.449521
 H         1.500291        -0.940633         2.102719
 H         3.994987        -0.872570         1.755070
 H         3.085131         2.826736         0.496346
 H         4.271199         2.194975        -0.610838
 H         2.182682         0.810179        -1.464533
 H         4.004651        -0.858221        -0.916167
