19
Iteration:  4415charge 0 multiplicity 1
 C        -0.121349         0.163676        -0.009859
 C         1.391120         0.005882         0.178835
 C         1.940262         0.223961         1.579794
 C         3.463792        -0.090502         1.257780
 O         4.154278         1.176035         1.096874
 C         3.324995         1.852235         0.092206
 C         2.558253         0.783861        -0.596114
 C         3.272418        -0.580586        -0.176502
 O         2.007571        -1.290586        -0.240445
 H        -0.454878         0.722611        -0.915064
 H        -0.506023        -0.806977        -0.123691
 H        -0.504025         0.699449         0.917607
 H         1.763716         1.285479         2.078837
 H         1.540794        -0.560150         2.312794
 H         4.155047        -0.704791         1.929656
 H         2.562093         2.460705         0.640796
 H         4.025745         2.486258        -0.493700
 H         2.363613         1.044761        -1.650495
 H         4.220916        -1.039631        -0.709641
