19
Iteration:  4364charge 0 multiplicity 1
 C        -0.001413         0.358628        -0.076715
 C         1.422198        -0.018702         0.270295
 C         2.076074        -0.077992         1.707382
 C         3.473980        -0.079517         1.239093
 O         3.928926         1.279636         1.189453
 C         3.302083         1.858790         0.009748
 C         2.501110         0.724618        -0.622384
 C         3.247560        -0.559545        -0.275298
 O         1.995426        -1.290598        -0.192876
 H        -0.114363        -0.165571        -1.015247
 H        -0.849745         0.157387         0.713825
 H         0.110589         1.499500        -0.241368
 H         2.047783         0.816057         2.283465
 H         1.615912        -0.884539         2.236562
 H         4.353677        -0.513717         1.743240
 H         2.876504         2.828720         0.288676
 H         4.184070         2.177487        -0.639227
 H         2.269594         0.715512        -1.765397
 H         4.153769        -0.873249        -0.960005
