19
Iteration:  1397charge 0 multiplicity 1
 C        -0.018679         0.271908        -0.042708
 C         1.417845         0.059436         0.226037
 C         1.993088        -0.026270         1.673536
 C         3.458038        -0.097066         1.261507
 O         4.056493         1.211011         1.160214
 C         3.291030         1.872946         0.099479
 C         2.614755         0.759208        -0.616636
 C         3.224317        -0.520705        -0.245704
 O         1.993249        -1.282336        -0.277643
 H        -0.570435         0.922932         0.691946
 H        -0.018556         0.730088        -1.000465
 H        -0.525400        -0.712883        -0.356233
 H         1.689841         0.850153         2.426199
 H         1.431968        -0.823173         2.175344
 H         4.250022        -0.701790         1.733226
 H         2.451390         2.586870         0.455361
 H         3.949525         2.539652        -0.415094
 H         2.390651         1.000661        -1.692292
 H         4.099360        -1.025375        -0.795831
