19
Iteration:   864
 C        -0.058976         0.009344        -0.056198
 C         1.380217         0.107969         0.128943
 C         1.912871        -0.102645         1.579512
 C         3.456735        -0.141821         1.253609
 O         4.094325         1.098009         1.280895
 C         3.501341         1.944890         0.278772
 C         2.513988         0.984999        -0.476372
 C         3.217605        -0.455381        -0.292839
 O         1.965195        -1.097497        -0.485915
 H        -0.551523        -0.323453         0.875924
 H        -0.670437         0.790160        -0.489300
 H        -0.193367        -0.900105        -0.652153
 H         1.766816         0.798629         2.337455
 H         1.508989        -1.063560         2.069058
 H         4.028920        -0.924519         1.810208
 H         3.027111         2.815998         0.720418
 H         4.305485         2.370321        -0.380918
 H         2.376045         1.209980        -1.605570
 H         4.069684        -0.879052        -0.786551
