19
Iteration:  4481charge 0 multiplicity 1
 C        -0.046143         0.213701        -0.082453
 C         1.430214         0.054652         0.268415
 C         1.993920         0.006880         1.684872
 C         3.464833         0.012677         1.305486
 O         4.084969         1.238178         1.099692
 C         3.419376         1.855842        -0.096240
 C         2.558372         0.768483        -0.609479
 C         3.244927        -0.552331        -0.090126
 O         1.911817        -1.278530        -0.225660
 H        -0.460883         1.223086        -0.073660
 H        -0.256083        -0.157551        -1.047327
 H        -0.615018        -0.522796         0.548969
 H         1.496650         0.799767         2.406423
 H         1.619758        -0.980123         2.029864
 H         4.041690        -0.636708         2.011387
 H         2.779889         2.681487         0.316962
 H         4.059728         2.352000        -0.855072
 H         2.158499         0.747030        -1.670965
 H         4.150603        -1.112673        -0.606329
