19
Iteration:   150
 C        -0.070575         0.233838         0.097793
 C         1.416638         0.040383         0.219802
 C         2.095178        -0.601570         1.420417
 C         3.572594        -0.310882         0.983665
 O         3.932635         0.927232         1.514226
 C         3.187666         1.898685         0.824363
 C         2.486442         1.129329        -0.304069
 C         3.342869        -0.109400        -0.570918
 O         2.088671        -0.931625        -0.973355
 H        -0.393766         1.369272        -0.064295
 H        -0.507161        -0.275560        -0.773838
 H        -0.626079        -0.140949         0.925338
 H         1.916570        -0.130594         2.507549
 H         1.773901        -1.640215         1.431456
 H         4.389180        -0.937839         1.276926
 H         2.376741         2.302177         1.437034
 H         3.829677         2.724563         0.550840
 H         2.058295         1.732250        -1.187934
 H         4.181559        -0.232770        -1.216988
