19
Iteration:  4051
 C        -0.022759         0.304906        -0.070981
 C         1.401783         0.000566         0.167835
 C         2.042602        -0.204220         1.747531
 C         3.499960        -0.157300         1.180606
 O         3.969576         1.252614         1.229346
 C         3.315036         1.931909         0.162998
 C         2.566243         0.804049        -0.589262
 C         3.288137        -0.486226        -0.331788
 O         1.965060        -1.223491        -0.283894
 H        -0.084761         1.385594        -0.380488
 H        -0.490485        -0.138050        -1.050054
 H        -0.641616         0.162107         0.802252
 H         1.882704         0.589111         2.402167
 H         1.558548        -1.066728         2.278422
 H         4.328113        -0.756888         1.627135
 H         2.576642         2.658210         0.586562
 H         4.121775         2.360981        -0.447536
 H         2.202375         1.017390        -1.690303
 H         4.204160        -0.940331        -0.848673
