19
Iteration:  4137
 C        -0.074065         0.104942        -0.151040
 C         1.400869         0.139286         0.239316
 C         2.006350         0.005259         1.665121
 C         3.566725        -0.134101         1.283721
 O         4.179103         1.134691         1.168883
 C         3.282591         1.884235         0.129407
 C         2.489069         0.847842        -0.543139
 C         3.177263        -0.504673        -0.268710
 O         1.957598        -1.185404        -0.279649
 H        -0.603893         0.329004         0.747208
 H        -0.255989         0.727662        -1.102152
 H        -0.401972        -0.870982        -0.447210
 H         1.880617         0.980600         2.174567
 H         1.557016        -0.898616         2.283389
 H         4.164971        -0.780883         1.976915
 H         2.664515         2.628714         0.689365
 H         3.961827         2.446266        -0.515424
 H         2.359179         1.104230        -1.707118
 H         4.009835        -0.904074        -0.973184
