19
Iteration:  4635charge 0 multiplicity 1
 C        -0.119066         0.128718         0.048239
 C         1.345783         0.047907         0.148244
 C         1.907235         0.189698         1.614741
 C         3.410859        -0.041988         1.343952
 O         4.186232         1.216531         1.034646
 C         3.389178         1.879791        -0.009755
 C         2.620585         0.668540        -0.636230
 C         3.285573        -0.621487        -0.089572
 O         1.953630        -1.193960        -0.229257
 H        -0.531979        -0.612213         0.698676
 H        -0.413390         1.158196         0.235091
 H        -0.443281        -0.146911        -0.996962
 H         1.725893         1.183405         2.174861
 H         1.513922        -0.688370         2.194384
 H         3.970005        -0.654665         1.943504
 H         2.631545         2.638835         0.384355
 H         4.053739         2.462518        -0.677149
 H         2.700169         0.463031        -1.746217
 H         4.182418        -1.113529        -0.527148
