19
Iteration:  4546charge 0 multiplicity 1
 C         0.003833         0.383002        -0.019121
 C         1.484101         0.001219         0.191771
 C         1.922005         0.012108         1.644414
 C         3.520129        -0.000572         1.388630
 O         4.043100         1.235675         1.014553
 C         3.203995         1.875898        -0.076413
 C         2.652299         0.658951        -0.641465
 C         3.293333        -0.624104        -0.138621
 O         1.936985        -1.311247        -0.165243
 H        -0.471570         0.796543         0.891029
 H        -0.117602         1.088343        -0.763036
 H        -0.579064        -0.518932        -0.349574
 H         1.556281         1.031896         2.106957
 H         1.711858        -0.893026         2.227416
 H         4.338817        -0.443654         2.001156
 H         2.452400         2.463258         0.520855
 H         3.726345         2.689212        -0.571784
 H         2.398186         0.802684        -1.743039
 H         4.055103        -1.427404        -0.494595
