19
Iteration:  1201charge 0 multiplicity 1
 C        -0.087407         0.046390        -0.116670
 C         1.379286         0.065777         0.175848
 C         1.948651         0.121293         1.625962
 C         3.452421        -0.082846         1.251138
 O         4.189737         1.119017         1.185404
 C         3.397847         1.899959         0.168844
 C         2.512689         0.814800        -0.537907
 C         3.227214        -0.460973        -0.225544
 O         1.963707        -1.215739        -0.317426
 H        -0.584047         0.864823         0.471049
 H        -0.364298         0.247255        -1.116784
 H        -0.485387        -0.939047         0.310478
 H         1.717912         1.099961         2.187125
 H         1.677560        -0.753362         2.190044
 H         3.836245        -0.883331         1.811037
 H         2.842907         2.754304         0.574918
 H         4.178899         2.220541        -0.505079
 H         2.355916         1.105917        -1.624064
 H         4.110287        -0.958984        -0.679994
