19
Iteration:  1531
 C        -0.049872         0.118218        -0.151347
 C         1.415034         0.036287         0.256524
 C         1.947474         0.170163         1.652712
 C         3.398345        -0.158412         1.221728
 O         4.170723         1.095724         1.141039
 C         3.309218         1.868815         0.224041
 C         2.506253         0.846115        -0.532430
 C         3.254089        -0.496513        -0.315551
 O         2.053191        -1.220218        -0.280712
 H        -0.346081         1.169586        -0.199545
 H        -0.281152        -0.311879        -1.199418
 H        -0.778319        -0.328331         0.668707
 H         1.742092         1.103851         2.235159
 H         1.606822        -0.703251         2.285124
 H         3.924983        -0.831046         1.886433
 H         2.625686         2.629915         0.736078
 H         3.919404         2.378625        -0.441776
 H         2.303165         1.167966        -1.491047
 H         4.048526        -0.841449        -0.906431
