19
Iteration:   127charge 0 multiplicity 1
 C         0.080212         0.344351         0.155298
 C         1.453493        -0.019406         0.081187
 C         2.095358        -0.664873         1.326412
 C         3.580379        -0.393678         0.980043
 O         3.919664         0.924628         1.516069
 C         2.992912         1.917479         0.827495
 C         2.428516         1.124766        -0.286332
 C         3.363358        -0.126584        -0.575203
 O         2.128503        -0.872052        -0.880451
 H        -0.298752         1.236557        -0.489190
 H        -0.732388        -0.367653        -0.024769
 H        -0.144935         0.604768         1.191180
 H         1.928283        -0.066456         2.337262
 H         1.756334        -1.715440         1.496469
 H         4.331983        -1.041672         1.409995
 H         2.260037         2.289899         1.571530
 H         3.583197         2.728183         0.504466
 H         2.231608         1.659411        -1.320447
 H         4.093137        -0.289896        -1.362144
