19
Iteration:  2359
 C        -0.141576         0.127227        -0.073584
 C         1.356359         0.041096         0.160857
 C         1.908963         0.087677         1.563649
 C         3.531336        -0.081145         1.253213
 O         4.194590         1.117622         1.093163
 C         3.368680         1.940739         0.249586
 C         2.648291         0.814328        -0.589475
 C         3.245996        -0.478661        -0.225950
 O         1.931509        -1.257823        -0.235690
 H        -0.667474         1.061255         0.230806
 H        -0.417982        -0.119989        -1.167284
 H        -0.616611        -0.723392         0.417734
 H         1.719592         1.020631         2.091651
 H         1.570656        -0.839933         2.086322
 H         4.050600        -0.747925         1.928599
 H         2.644286         2.491867         0.812337
 H         3.956738         2.761461        -0.243670
 H         2.367450         0.932729        -1.641905
 H         4.071979        -0.946898        -0.688908
