19
Iteration:  1753charge 0 multiplicity 1
 C         0.051396         0.464503        -0.018632
 C         1.446768        -0.000760         0.220959
 C         2.005203        -0.172589         1.680936
 C         3.473042        -0.172061         1.181915
 O         3.903258         1.365335         1.282914
 C         3.264301         1.901910         0.100561
 C         2.580700         0.729783        -0.617808
 C         3.245512        -0.563276        -0.251889
 O         2.046699        -1.323350        -0.386437
 H         0.022840         1.633369        -0.062501
 H        -0.572918        -0.037978        -0.848090
 H        -0.512342         0.205008         0.896375
 H         1.874382         0.531019         2.445989
 H         1.680030        -1.196185         2.082543
 H         4.220951        -0.746644         1.716450
 H         2.515294         2.613947         0.400539
 H         4.048866         2.285739        -0.454825
 H         2.245801         0.779378        -1.728934
 H         4.178306        -0.926813        -0.737465
