19
Iteration:  1774charge 0 multiplicity 1
 C         0.071244         0.453589         0.007982
 C         1.439355        -0.049388         0.198813
 C         2.018222        -0.081198         1.584026
 C         3.508264        -0.167355         1.292795
 O         3.890311         1.202243         1.199052
 C         3.165837         1.896811         0.128996
 C         2.561577         0.786964        -0.601965
 C         3.328720        -0.536144        -0.346339
 O         2.052501        -1.295643        -0.256963
 H         0.099599         1.628838         0.190423
 H        -0.308725         0.192067        -1.072685
 H        -0.742025         0.017908         0.589458
 H         1.700329         0.689156         2.171721
 H         1.636361        -1.000517         2.180641
 H         4.165578        -0.702255         1.984504
 H         2.503142         2.648696         0.578612
 H         3.957903         2.301135        -0.543015
 H         2.329599         1.030178        -1.688233
 H         4.159493        -0.894896        -1.027222
