19
Iteration:  3351charge 0 multiplicity 1
 C        -0.039190         0.284559        -0.053164
 C         1.500372         0.148945         0.179195
 C         1.902071         0.072618         1.632671
 C         3.494937        -0.090924         1.317516
 O         4.062011         1.197598         1.141124
 C         3.292125         1.937681         0.091526
 C         2.579671         0.746460        -0.619197
 C         3.246673        -0.626294        -0.207806
 O         1.984742        -1.388329        -0.239276
 H        -0.616681        -0.735013         0.005267
 H        -0.389128         0.977057         0.677149
 H        -0.173429         0.644988        -1.105192
 H         1.834043         0.985018         2.066883
 H         1.389330        -0.779127         2.096266
 H         4.224647        -0.603704         1.919897
 H         2.624309         2.675831         0.566114
 H         3.949365         2.572919        -0.596303
 H         2.326549         0.708320        -1.698993
 H         4.071290        -1.013956        -0.838888
