19
Iteration:  1718charge 0 multiplicity 1
 C        -0.001384         0.203983         0.003050
 C         1.385843         0.065979         0.218370
 C         1.959030        -0.075979         1.646197
 C         3.435485        -0.130628         1.213093
 O         4.011234         1.231125         1.239528
 C         3.374616         1.867287         0.132177
 C         2.584999         0.806765        -0.634359
 C         3.251649        -0.510404        -0.219643
 O         2.007262        -1.173372        -0.379685
 H        -0.344135         1.293052        -0.237772
 H        -0.477306        -0.505035        -0.836415
 H        -0.433539        -0.047230         0.941436
 H         1.661061         0.634069         2.350644
 H         1.678371        -1.140012         2.019782
 H         4.112281        -0.821366         1.774115
 H         2.813519         2.747297         0.423077
 H         4.077319         2.338686        -0.535071
 H         2.272068         0.922917        -1.670733
 H         4.167394        -1.002462        -0.686317
