19
Iteration:  4582
 C        -0.135447         0.113795        -0.163548
 C         1.340064         0.046079         0.292645
 C         2.003693         0.153749         1.684812
 C         3.564204        -0.046077         1.301189
 O         4.111126         1.192970         1.129872
 C         3.435144         1.837163        -0.053118
 C         2.502247         0.802907        -0.601951
 C         3.206248        -0.561411        -0.233561
 O         1.964467        -1.269283        -0.114991
 H        -0.714736         0.168574         0.690080
 H        -0.342047         0.970514        -0.828382
 H        -0.395866        -0.816585        -0.642798
 H         1.895438         1.168159         2.070259
 H         1.539502        -0.482343         2.463689
 H         4.170753        -0.717065         1.831898
 H         2.855787         2.729228         0.155556
 H         4.289730         2.003453        -0.710202
 H         2.125785         1.050626        -1.607351
 H         4.079166        -0.946989        -0.763097
