19
Iteration:  3156charge 0 multiplicity 1
 C        -0.114485         0.097851        -0.153170
 C         1.369505         0.119984         0.212664
 C         1.968007         0.059512         1.662142
 C         3.471448        -0.040627         1.300321
 O         4.138240         1.169664         1.174118
 C         3.409516         1.847846         0.107090
 C         2.577182         0.809965        -0.601518
 C         3.177028        -0.491744        -0.224000
 O         1.993198        -1.230935        -0.271406
 H        -0.767598         0.328190         0.780397
 H        -0.357207         0.742347        -0.960216
 H        -0.366247        -0.956089        -0.459955
 H         2.019521         0.877722         2.404272
 H         1.499479        -0.835766         2.334106
 H         4.078212        -0.776003         1.939072
 H         2.719075         2.618643         0.525762
 H         4.178028         2.194736        -0.579097
 H         2.244400         0.980780        -1.712652
 H         4.059967        -0.959973        -0.749787
