19
Iteration:   538charge 0 multiplicity 1
 C        -0.088361         0.064815        -0.142602
 C         1.386608        -0.001859         0.169627
 C         2.007717        -0.139674         1.522485
 C         3.482910        -0.292271         1.109241
 O         4.199771         0.981960         1.292414
 C         3.251193         1.957225         0.593285
 C         2.488726         1.080747        -0.371802
 C         3.234229        -0.290332        -0.362335
 O         2.012276        -1.053695        -0.587907
 H        -0.210550         0.698692        -1.027372
 H        -0.535505        -0.905484        -0.281914
 H        -0.645909         0.429232         0.726925
 H         2.003600         0.671081         2.236290
 H         1.605765        -1.111377         2.023176
 H         4.149407        -1.062527         1.543158
 H         2.647116         2.496055         1.354817
 H         3.866904         2.588849        -0.032763
 H         2.330710         1.471144        -1.340678
 H         3.950704        -0.607403        -1.088000
