19
Iteration:  2313
 C        -0.131624         0.129100        -0.027931
 C         1.349697         0.051991         0.224266
 C         1.988509        -0.013756         1.689515
 C         3.432119        -0.170612         1.213752
 O         4.080595         1.256955         1.231871
 C         3.460568         1.861108         0.061821
 C         2.592639         0.805671        -0.614497
 C         3.267933        -0.501406        -0.215309
 O         1.970168        -1.191257        -0.319256
 H        -0.766292         0.675887         0.633422
 H        -0.304131         0.588058        -1.098543
 H        -0.497153        -0.949175        -0.251921
 H         1.942303         1.112932         2.026864
 H         1.488183        -0.618789         2.387194
 H         3.958055        -0.788423         1.964830
 H         2.888424         2.744871         0.400897
 H         4.212367         2.356202        -0.572646
 H         2.381259         0.826587        -1.598417
 H         4.074028        -0.880919        -0.861681
