19
Iteration:  4659
 C         0.007830         0.343573        -0.041917
 C         1.447456         0.029681         0.182949
 C         1.971575         0.142451         1.635808
 C         3.466795        -0.027110         1.361535
 O         4.038284         1.295735         1.060903
 C         3.314238         1.836217         0.027582
 C         2.529904         0.658970        -0.704133
 C         3.293366        -0.678257        -0.215086
 O         1.967564        -1.386175        -0.123144
 H        -0.543004        -0.500080         0.134020
 H        -0.305993         1.188689         0.629669
 H        -0.161533         0.653373        -1.027695
 H         1.854480         1.096676         2.120458
 H         1.527241        -0.685402         2.258817
 H         4.110937        -0.505356         2.067567
 H         2.601746         2.574037         0.487228
 H         3.882413         2.482076        -0.676086
 H         2.173441         0.741225        -1.715951
 H         4.100374        -1.208682        -0.635721
