19
Iteration:    68charge 0 multiplicity 1
 C        -0.105635         0.084340        -0.052852
 C         1.399915         0.015020         0.164258
 C         2.052906        -0.581703         1.456391
 C         3.481170        -0.361975         0.928437
 O         4.040703         0.846109         1.492873
 C         3.264050         1.875556         0.938243
 C         2.508745         1.209673        -0.209930
 C         3.239342         0.013586        -0.575508
 O         2.093070        -0.790248        -0.925089
 H        -0.302538        -0.867940        -0.351612
 H        -0.481872         0.198154         0.967411
 H        -0.417414         0.842083        -0.826083
 H         1.844770        -0.003119         2.287424
 H         1.874555        -1.660887         1.670640
 H         4.267827        -1.131771         1.084935
 H         2.477312         2.314762         1.598781
 H         3.845191         2.721749         0.614791
 H         2.299794         1.816655        -1.029953
 H         4.073945        -0.107337        -1.295149
