19
Iteration:  4670
 C         0.041975         0.423905        -0.111019
 C         1.436766        -0.012511         0.252613
 C         2.024749         0.120228         1.661570
 C         3.499834        -0.067470         1.231125
 O         4.011323         1.308138         1.132032
 C         3.194333         1.829449        -0.049057
 C         2.523135         0.582179        -0.620044
 C         3.276042        -0.660622        -0.225033
 O         2.012266        -1.328941        -0.064300
 H        -0.643799        -0.332902        -0.130235
 H        -0.331376         1.139637         0.672947
 H         0.068395         0.874680        -1.042892
 H         1.824313         1.073860         2.107656
 H         1.474628        -0.668736         2.253619
 H         4.116695        -0.645270         1.891071
 H         2.393601         2.570707         0.166278
 H         4.059535         2.249502        -0.563054
 H         2.390846         0.632619        -1.674440
 H         4.014740        -1.086093        -0.831717
