19
Iteration:  1126
 C        -0.001063         0.394083        -0.027783
 C         1.471274        -0.058322         0.153916
 C         1.960020        -0.050894         1.624744
 C         3.461153        -0.083513         1.221027
 O         3.982420         1.250245         1.202381
 C         3.248454         1.937433         0.149419
 C         2.609363         0.749000        -0.570952
 C         3.321000        -0.582967        -0.217593
 O         1.986234        -1.348403        -0.333521
 H        -0.280648         1.254712         0.654689
 H        -0.236933         0.825431        -1.069461
 H        -0.709634        -0.425187         0.233512
 H         1.757461         0.847628         2.169743
 H         1.713489        -0.865854         2.147994
 H         3.990315        -0.735754         1.871789
 H         2.628627         2.662360         0.618739
 H         3.911986         2.515219        -0.551127
 H         2.455018         1.052886        -1.643116
 H         4.135656        -1.163979        -0.722036
