19
Iteration:   658
 C        -0.083804         0.237669        -0.107686
 C         1.453086         0.000041         0.148306
 C         2.035693        -0.221445         1.608723
 C         3.591900        -0.210589         1.197846
 O         4.106311         1.065520         1.271538
 C         3.210731         1.923831         0.521612
 C         2.487503         0.942824        -0.546378
 C         3.244998        -0.350941        -0.359742
 O         1.997246        -1.107381        -0.542824
 H        -0.638341        -0.461220         0.629316
 H        -0.333832         1.339498         0.049748
 H        -0.183365         0.055477        -1.226017
 H         1.760816         0.468991         2.346548
 H         1.633276        -1.214037         1.952502
 H         4.182860        -0.994170         1.779193
 H         2.370877         2.460504         1.124979
 H         3.785997         2.786584         0.202394
 H         2.141245         1.260983        -1.574797
 H         4.054648        -0.826208        -0.896516
