19
Iteration:  4363charge 0 multiplicity 1
 C        -0.005176         0.355426        -0.068235
 C         1.411894        -0.023095         0.267743
 C         2.075847        -0.070630         1.709952
 C         3.469350        -0.087072         1.242676
 O         3.926014         1.281159         1.192764
 C         3.308652         1.855241         0.010263
 C         2.499577         0.726641        -0.628708
 C         3.247221        -0.556553        -0.280367
 O         2.000188        -1.294520        -0.194714
 H        -0.114161        -0.178495        -1.019045
 H        -0.846600         0.197071         0.702302
 H         0.149368         1.500733        -0.251906
 H         2.072357         0.825213         2.310530
 H         1.621452        -0.851863         2.229920
 H         4.380513        -0.497845         1.728023
 H         2.869942         2.811925         0.273905
 H         4.194300         2.189589        -0.623082
 H         2.293259         0.721040        -1.763890
 H         4.167521        -0.846363        -0.979963
