19
Iteration:   530
 C        -0.110955         0.067272        -0.153969
 C         1.403569        -0.010257         0.154176
 C         2.056736        -0.128216         1.588366
 C         3.514256        -0.281248         1.126128
 O         4.174950         0.994892         1.271026
 C         3.289841         1.912561         0.652719
 C         2.434819         1.037245        -0.402869
 C         3.244692        -0.266954        -0.387521
 O         1.976852        -1.066133        -0.588990
 H        -0.171785         0.532983        -1.249573
 H        -0.576205        -0.981013        -0.239500
 H        -0.490441         0.827991         0.495047
 H         1.749807         0.723682         2.294046
 H         1.641112        -1.186755         2.055191
 H         4.144638        -1.169635         1.378026
 H         2.711606         2.515342         1.350559
 H         3.864211         2.756197        -0.000989
 H         2.246413         1.699166        -1.370058
 H         4.165821        -0.482587        -0.947040
