19
Iteration:  1009charge 0 multiplicity 1
 C        -0.150081         0.061458         0.007461
 C         1.326004         0.123194         0.185918
 C         1.948861         0.034411         1.554756
 C         3.423229        -0.108952         1.290825
 O         4.117824         1.159551         1.264594
 C         3.461949         1.867797         0.213731
 C         2.619786         0.847512        -0.574696
 C         3.289591        -0.500492        -0.280579
 O         1.985491        -1.171474        -0.424924
 H        -0.535208         0.506270        -0.921819
 H        -0.419803        -1.031942        -0.282518
 H        -0.736590         0.465599         0.752935
 H         1.655780         0.941400         2.071250
 H         1.400527        -0.923090         2.100135
 H         4.141501        -0.780269         1.745478
 H         2.905187         2.705259         0.699469
 H         4.174748         2.404113        -0.410728
 H         2.276861         1.115017        -1.562678
 H         4.162512        -1.043316        -0.787702
