19
Iteration:  3760charge 0 multiplicity 1
 C        -0.088975         0.115251         0.010418
 C         1.436239         0.071532         0.176998
 C         1.957217        -0.015488         1.556127
 C         3.465239        -0.162620         1.243297
 O         4.116258         1.170307         1.175186
 C         3.346714         1.943137         0.268124
 C         2.620717         0.846368        -0.558492
 C         3.283776        -0.541541        -0.205109
 O         1.929307        -1.175846        -0.446002
 H        -0.271811         0.375973        -1.038942
 H        -0.528666        -0.857504         0.265237
 H        -0.603347         0.876095         0.572821
 H         1.725692         0.871166         2.219215
 H         1.449973        -0.788640         2.056217
 H         3.929246        -0.642711         2.062683
 H         2.569452         2.548897         0.748354
 H         3.946134         2.546282        -0.423474
 H         2.512281         1.153931        -1.605546
 H         4.002702        -1.012059        -0.818448
