19
Iteration:   386
 C        -0.072045         0.105687        -0.130985
 C         1.409267         0.025855         0.185613
 C         2.003741        -0.318615         1.613398
 C         3.488307        -0.261581         1.098391
 O         4.189813         0.932762         1.362714
 C         3.240928         1.874354         0.667729
 C         2.432238         1.092723        -0.425252
 C         3.242958        -0.197027        -0.489389
 O         2.033911        -0.968444        -0.708277
 H        -0.498902         0.749721         0.694275
 H        -0.168232         0.522946        -1.142530
 H        -0.530036        -0.940816        -0.067403
 H         1.918523         0.438530         2.386928
 H         1.624271        -1.323871         2.023252
 H         4.181151        -0.967812         1.504365
 H         2.629393         2.295567         1.437343
 H         3.836174         2.800740         0.340282
 H         2.052899         1.637605        -1.266658
 H         4.141703        -0.434371        -1.020582
