19
Iteration:  3876
 C         0.027519         0.429344         0.036283
 C         1.434612        -0.069755         0.163229
 C         1.972228         0.020921         1.560830
 C         3.491673        -0.075352         1.253197
 O         4.052385         1.227343         1.212556
 C         3.166523         1.801402         0.199900
 C         2.543078         0.739789        -0.646341
 C         3.315844        -0.526215        -0.274467
 O         2.052704        -1.321428        -0.327440
 H        -0.195788         1.333249         0.581760
 H        -0.275307         0.507807        -1.095029
 H        -0.808620        -0.207329         0.360072
 H         1.655874         0.928545         2.051943
 H         1.666758        -0.849136         2.245586
 H         3.999418        -0.755661         1.815070
 H         2.369201         2.317120         0.773234
 H         3.814484         2.526142        -0.283444
 H         2.314567         0.924415        -1.715675
 H         4.073785        -1.004820        -0.802444
