19
Iteration:  1515charge 0 multiplicity 1
 C        -0.083899         0.087600        -0.156812
 C         1.384843         0.075211         0.142287
 C         1.938420         0.074326         1.604287
 C         3.488070        -0.085205         1.244055
 O         4.218402         1.073578         1.094121
 C         3.352805         1.933551         0.305976
 C         2.518152         0.863438        -0.568762
 C         3.226341        -0.442451        -0.228365
 O         1.941936        -1.259272        -0.239002
 H        -0.389181         1.094843        -0.537880
 H        -0.143025        -0.676243        -0.877337
 H        -0.666474        -0.402870         0.685538
 H         1.856640         1.035561         2.141168
 H         1.441510        -0.581784         2.307379
 H         4.041230        -0.854052         1.819646
 H         2.784710         2.538013         0.994020
 H         3.981181         2.757846        -0.215117
 H         2.238426         0.946098        -1.697485
 H         4.102692        -0.903337        -0.808948
