19
Iteration:  1229
 C        -0.024385         0.299890        -0.046265
 C         1.443400         0.024970         0.211224
 C         1.936906         0.011799         1.621752
 C         3.522619        -0.147245         1.263489
 O         4.075089         1.175513         1.160561
 C         3.209044         1.928806         0.165829
 C         2.571796         0.772349        -0.591450
 C         3.326016        -0.504641        -0.262179
 O         1.985515        -1.304824        -0.316949
 H        -0.298988         1.343621        -0.020795
 H        -0.306553        -0.104788        -1.096111
 H        -0.684296        -0.288868         0.597436
 H         1.746618         0.994827         2.043003
 H         1.450005        -0.721206         2.365204
 H         4.059720        -0.909534         1.873483
 H         2.416832         2.592827         0.588452
 H         4.011598         2.455182        -0.361405
 H         2.377353         1.143933        -1.556838
 H         4.144040        -1.010513        -0.673948
