19
Iteration:     9
 C        -0.093467         0.099092        -0.008379
 C         1.415483         0.033459         0.169886
 C         2.093906        -0.641122         1.377377
 C         3.596179        -0.417252         0.949453
 O         4.047885         0.827071         1.502840
 C         3.177783         1.916370         0.996006
 C         2.431944         1.266901        -0.196536
 C         3.270143         0.005096        -0.593465
 O         2.082470        -0.748743        -0.999616
 H        -0.665588         0.434521         0.992575
 H        -0.400560         0.688971        -0.856034
 H        -0.470846        -0.903412        -0.170333
 H         1.650644        -0.192813         2.336201
 H         1.817468        -1.612023         1.355893
 H         4.140235        -1.340677         1.076902
 H         2.532706         2.192827         1.855932
 H         4.054726         2.785856         0.828377
 H         2.062230         1.831017        -1.127594
 H         4.201411        -0.214442        -1.085790
