19
Iteration:   727
 C        -0.126329         0.125464        -0.027646
 C         1.376634         0.134561         0.221090
 C         1.974963        -0.203275         1.547482
 C         3.461478        -0.208801         1.203254
 O         3.999995         1.109798         1.332105
 C         3.409588         1.953785         0.342903
 C         2.547954         0.981383        -0.498843
 C         3.282200        -0.447985        -0.318375
 O         2.037687        -1.117160        -0.591899
 H        -0.154879        -0.526635        -0.937731
 H        -0.506089        -0.588649         0.758935
 H        -0.540423         1.072661        -0.030733
 H         1.740389         0.522299         2.399264
 H         1.660451        -1.250192         1.890177
 H         4.127141        -0.861267         1.661519
 H         2.967031         2.843812         0.872714
 H         4.288070         2.462809        -0.115485
 H         2.192528         1.183627        -1.515364
 H         4.207901        -0.693432        -0.863973
