19
Iteration:  3273
 C        -0.104342         0.209472        -0.118287
 C         1.381664         0.008944         0.209734
 C         1.983616         0.066806         1.652749
 C         3.489787        -0.171100         1.337508
 O         4.052970         1.261005         1.150273
 C         3.456390         1.904528        -0.014660
 C         2.528688         0.809895        -0.620005
 C         3.251388        -0.524798        -0.124595
 O         1.950743        -1.287838        -0.201139
 H        -0.499593        -0.816364        -0.513892
 H        -0.852549         0.623586         0.654544
 H        -0.301521         0.753405        -1.048260
 H         1.876519         0.927621         2.317475
 H         1.637145        -0.894471         2.151853
 H         4.297610        -0.673268         1.942494
 H         2.879873         2.817209         0.289972
 H         4.339078         2.193644        -0.721317
 H         2.415963         0.974865        -1.795976
 H         4.005466        -1.058152        -0.717269
