19
Iteration:  4126
 C        -0.089819         0.100167        -0.090840
 C         1.368626         0.023632         0.186007
 C         1.991507         0.138792         1.615084
 C         3.482797        -0.101518         1.168928
 O         4.170263         1.144011         1.201057
 C         3.374442         1.852412         0.240406
 C         2.485749         0.824928        -0.525494
 C         3.243990        -0.455848        -0.304715
 O         1.974137        -1.219550        -0.273903
 H        -0.763641         0.496366         0.631998
 H        -0.478090         0.717818        -0.974985
 H        -0.240889        -0.960029        -0.203457
 H         1.746916         1.051883         2.197385
 H         1.622459        -0.759775         2.294408
 H         4.085685        -0.877663         1.692562
 H         2.845571         2.658480         0.798476
 H         4.056784         2.283053        -0.506039
 H         2.154460         0.996179        -1.677038
 H         4.083444        -0.924289        -0.950756
