19
Iteration:  1846charge 0 multiplicity 1
 C        -0.107944        -0.016908        -0.061856
 C         1.349251         0.013326         0.248953
 C         1.954737         0.162549         1.645107
 C         3.427800        -0.131380         1.244667
 O         4.127564         1.086656         1.199078
 C         3.471081         1.885921         0.157609
 C         2.544254         0.931097        -0.594935
 C         3.233023        -0.449037        -0.324584
 O         2.019147        -1.156441        -0.274704
 H        -0.820115         0.440211         0.544167
 H        -0.201088         0.372642        -1.125197
 H        -0.457329        -1.076425        -0.182009
 H         1.614472         1.180348         2.124934
 H         1.521173        -0.633756         2.315269
 H         3.917800        -0.866372         1.977602
 H         2.916267         2.721678         0.548784
 H         4.299054         2.122065        -0.564325
 H         2.212742         1.203055        -1.539306
 H         3.895372        -1.027724        -1.058091
