19
Iteration:   210
 C        -0.141388         0.014548        -0.098675
 C         1.409983        -0.004853         0.117131
 C         2.035190        -0.381800         1.501680
 C         3.562929        -0.381361         1.001114
 O         4.128965         0.899247         1.429221
 C         3.243283         1.907612         0.795237
 C         2.483318         1.175425        -0.251690
 C         3.254259        -0.075050        -0.500263
 O         2.023839        -0.847019        -0.798196
 H        -0.555669        -0.306335         0.794498
 H        -0.424804         1.062994        -0.308543
 H        -0.548149        -0.683048        -0.935336
 H         1.890887         0.288816         2.282588
 H         1.595680        -1.369404         1.807080
 H         4.225472        -1.292744         1.111762
 H         2.580418         2.299934         1.581688
 H         4.042951         2.713527         0.492575
 H         2.117814         1.808981        -0.982389
 H         4.170508        -0.343006        -1.119602
