19
Iteration:  2714charge 0 multiplicity 1
 C        -0.099045         0.199745        -0.009716
 C         1.413215         0.022639         0.223432
 C         2.001808         0.065674         1.652165
 C         3.500251        -0.067372         1.231360
 O         3.985333         1.214719         1.247312
 C         3.382089         1.876587         0.070045
 C         2.498378         0.733520        -0.610362
 C         3.321627        -0.503612        -0.205343
 O         1.986810        -1.256496        -0.359498
 H        -0.439060         1.084625         0.463956
 H        -0.135976         0.494510        -1.109337
 H        -0.757324        -0.702501         0.262875
 H         1.935796         0.997917         2.260714
 H         1.556910        -0.794816         2.039241
 H         4.184935        -0.739321         1.798988
 H         2.864122         2.705199         0.441653
 H         4.194326         2.147876        -0.569822
 H         2.421013         0.651825        -1.634566
 H         4.103390        -1.039266        -0.767935
