19
Iteration:  2853charge 0 multiplicity 1
 C         0.001184         0.087734        -0.155126
 C         1.384561         0.056549         0.253661
 C         1.966305         0.095488         1.692165
 C         3.447276        -0.123851         1.219732
 O         4.054221         1.199568         1.165470
 C         3.439265         1.878496         0.119808
 C         2.520638         0.902300        -0.552430
 C         3.287796        -0.527390        -0.274800
 O         1.913354        -1.231801        -0.252771
 H        -0.527056         0.681163         0.608321
 H        -0.370930         0.347517        -1.098656
 H        -0.324737        -0.946986         0.096971
 H         1.697282         1.063276         2.075466
 H         1.677940        -0.834354         2.312842
 H         4.099490        -0.761224         1.848773
 H         3.011636         2.759951         0.483983
 H         4.186134         1.976962        -0.692443
 H         2.166246         1.061123        -1.519118
 H         4.042630        -1.195082        -0.746595
