19
Iteration:  2315
 C        -0.142768         0.116021        -0.030189
 C         1.358607         0.056771         0.233142
 C         2.001915         0.012062         1.686885
 C         3.417426        -0.157194         1.230358
 O         4.074599         1.231117         1.220005
 C         3.460113         1.860095         0.061400
 C         2.583465         0.804270        -0.594972
 C         3.287889        -0.500048        -0.221521
 O         1.968559        -1.189084        -0.329703
 H        -0.795864         0.670478         0.612030
 H        -0.294857         0.567038        -1.106453
 H        -0.453698        -0.923185        -0.226990
 H         1.898786         1.068126         1.991739
 H         1.461949        -0.560751         2.436881
 H         4.000070        -0.766998         1.911278
 H         2.904937         2.648321         0.446196
 H         4.248871         2.368073        -0.545637
 H         2.388451         0.837645        -1.667008
 H         4.058001        -0.821943        -0.866883
