19
Iteration:  2881
 C        -0.126063         0.271385        -0.016093
 C         1.352799         0.018652         0.217177
 C         1.984286        -0.014980         1.641235
 C         3.432330        -0.110248         1.299254
 O         4.045022         1.246757         1.190816
 C         3.355866         1.834816         0.085600
 C         2.616112         0.765479        -0.700432
 C         3.348100        -0.497634        -0.236231
 O         2.022460        -1.268688        -0.288374
 H        -0.584827         0.921484         0.831902
 H        -0.357261         0.856711        -0.943902
 H        -0.641449        -0.682836        -0.004927
 H         1.751181         0.958326         2.126257
 H         1.675879        -0.867025         2.226643
 H         4.021362        -0.685129         1.977899
 H         2.598190         2.624568         0.490811
 H         4.116861         2.380623        -0.511146
 H         2.318510         0.743754        -1.836792
 H         4.170463        -1.047918        -0.675436
