19
Iteration:  4984charge 0 multiplicity 1
 C         0.011823         0.345554        -0.017146
 C         1.521564        -0.031393         0.282373
 C         1.998543         0.125101         1.633715
 C         3.471939         0.037886         1.309695
 O         3.974640         1.308296         1.096811
 C         3.320531         1.841161        -0.131518
 C         2.587043         0.643329        -0.679188
 C         3.175573        -0.660317        -0.172069
 O         1.962056        -1.383218        -0.103313
 H        -0.525899        -0.494553        -0.512272
 H        -0.484964         0.645398         0.986650
 H         0.070229         1.209576        -0.646058
 H         1.649018         1.035846         2.076516
 H         1.679740        -0.719597         2.319425
 H         4.179497        -0.425100         1.936641
 H         2.641160         2.721193        -0.024169
 H         4.116860         2.348524        -0.739163
 H         2.271726         0.489056        -1.730200
 H         4.074870        -1.169997        -0.661066
