19
Iteration:  2892charge 0 multiplicity 1
 C        -0.096694         0.333158         0.000356
 C         1.465179        -0.026017         0.119623
 C         1.927091         0.013329         1.653779
 C         3.484314        -0.032393         1.252117
 O         4.015148         1.227667         1.146650
 C         3.296808         1.902264         0.088530
 C         2.637998         0.718879        -0.580313
 C         3.297140        -0.634697        -0.200837
 O         2.008093        -1.275899        -0.313778
 H        -0.245948         0.927943         0.964267
 H        -0.438148         0.846960        -0.920990
 H        -0.678197        -0.575438         0.106601
 H         1.501254         0.739805         2.358703
 H         1.689741        -0.957298         2.064740
 H         4.157450        -0.561506         1.883960
 H         2.488829         2.647347         0.525895
 H         4.000062         2.514363        -0.508739
 H         2.505541         1.049088        -1.696656
 H         4.213771        -1.095256        -0.501512
