19
Iteration:  3886charge 0 multiplicity 1
 C         0.011508         0.351437        -0.014853
 C         1.431452         0.005277         0.197424
 C         1.947303         0.030730         1.595601
 C         3.501969        -0.093174         1.195273
 O         4.031150         1.194010         1.230484
 C         3.211155         1.885856         0.194318
 C         2.545915         0.678533        -0.615444
 C         3.296359        -0.590533        -0.261950
 O         2.031495        -1.252483        -0.341246
 H        -0.223375         1.107063         0.741588
 H        -0.261507         0.865391        -1.045006
 H        -0.563586        -0.606378         0.252217
 H         1.847261         0.924464         2.096309
 H         1.724060        -0.816744         2.327205
 H         4.155454        -0.571758         1.839757
 H         2.396077         2.512670         0.631231
 H         3.801829         2.587420        -0.383691
 H         2.430310         0.748277        -1.699398
 H         4.050889        -0.975608        -0.867628
