19
Iteration:  2774charge 0 multiplicity 1
 C        -0.014768         0.380228        -0.064894
 C         1.451189         0.036376         0.124952
 C         2.040711        -0.022564         1.668563
 C         3.496658        -0.115550         1.252101
 O         3.986255         1.263359         1.204651
 C         3.193180         1.850981         0.156352
 C         2.545592         0.701821        -0.559142
 C         3.338805        -0.590603        -0.283498
 O         2.014259        -1.292612        -0.303714
 H        -0.159585         1.529741        -0.037581
 H        -0.390820        -0.145663        -0.907502
 H        -0.601655         0.022088         0.740002
 H         1.937629         0.835267         2.289637
 H         1.398260        -0.715261         2.292087
 H         4.285939        -0.590087         1.785396
 H         2.460842         2.548939         0.491537
 H         3.773569         2.443568        -0.554537
 H         2.253315         0.850954        -1.685875
 H         4.126557        -1.141639        -0.754717
