19
Iteration:  2771charge 0 multiplicity 1
 C        -0.033202         0.400798        -0.065125
 C         1.467184         0.053909         0.149740
 C         2.071938        -0.061377         1.634369
 C         3.501557        -0.119759         1.291236
 O         3.962357         1.257237         1.191193
 C         3.191187         1.841966         0.127600
 C         2.538181         0.711440        -0.547098
 C         3.327656        -0.574850        -0.278877
 O         2.028324        -1.283162        -0.291416
 H        -0.173583         1.514483        -0.055005
 H        -0.402348        -0.143763        -1.055139
 H        -0.652535         0.025869         0.774948
 H         1.896915         0.848782         2.285302
 H         1.503943        -0.735585         2.188819
 H         4.296653        -0.652086         1.896150
 H         2.458532         2.540351         0.467232
 H         3.748376         2.428030        -0.562201
 H         2.315189         0.830532        -1.680745
 H         4.092486        -1.207814        -0.789980
