19
Iteration:   842
 C        -0.122170         0.077033        -0.111175
 C         1.389735         0.032312         0.236068
 C         1.946130        -0.059557         1.628727
 C         3.484248        -0.204576         1.202072
 O         4.092263         1.087477         1.281493
 C         3.372427         1.907098         0.298910
 C         2.554050         0.940119        -0.496424
 C         3.266725        -0.383125        -0.345669
 O         2.017911        -1.128472        -0.453287
 H        -0.801298         0.582584         0.609929
 H        -0.174774         0.713256        -1.001361
 H        -0.564891        -0.923153        -0.351933
 H         1.888826         0.837466         2.379824
 H         1.594306        -1.001700         2.149715
 H         4.058763        -1.056973         1.685145
 H         2.792417         2.712262         0.756451
 H         4.088459         2.457478        -0.339595
 H         2.250687         1.349237        -1.521871
 H         4.120102        -0.663787        -0.960375
