19
Iteration:  1448charge 0 multiplicity 1
 C        -0.021734         0.395570         0.026685
 C         1.420382        -0.018049         0.214355
 C         1.963016        -0.124932         1.614780
 C         3.450046        -0.069721         1.240511
 O         3.888309         1.255858         1.263563
 C         3.364586         1.900918         0.093991
 C         2.551390         0.717236        -0.630138
 C         3.373639        -0.557222        -0.331228
 O         2.049430        -1.300457        -0.309401
 H        -0.061433         1.515122         0.175492
 H        -0.582225         0.152806        -0.892322
 H        -0.767732         0.010811         0.890139
 H         1.748670         0.735049         2.174385
 H         1.618331        -1.069927         2.134757
 H         4.098222        -0.557251         1.941419
 H         2.811866         2.788024         0.275207
 H         4.299868         2.356155        -0.457460
 H         2.133287         0.846336        -1.710382
 H         4.186331        -0.932674        -0.937426
