19
Iteration:  3185charge 0 multiplicity 1
 C         0.019581         0.211634        -0.180568
 C         1.400279        -0.031793         0.185057
 C         1.954481         0.102652         1.680730
 C         3.477563        -0.077760         1.226840
 O         4.071608         1.193335         1.159570
 C         3.309695         1.896129         0.108733
 C         2.568871         0.783983        -0.546088
 C         3.194747        -0.525340        -0.200679
 O         1.969441        -1.289600        -0.222999
 H        -0.465103         0.149078         0.817728
 H         0.052391         1.271795        -0.557833
 H        -0.431125        -0.538794        -0.789488
 H         2.045117         1.022550         2.270966
 H         1.622110        -0.696063         2.300350
 H         4.087366        -0.829176         1.726467
 H         2.681304         2.703224         0.500898
 H         4.090334         2.384268        -0.562653
 H         2.227578         0.734495        -1.624680
 H         4.033853        -0.915583        -0.745751
