19
Iteration:  1684
 C        -0.118347         0.052218        -0.124508
 C         1.358362         0.002778         0.200779
 C         1.957068         0.170302         1.603998
 C         3.474353        -0.144935         1.161488
 O         4.192137         1.150678         1.192503
 C         3.397281         1.890757         0.295408
 C         2.494421         0.831691        -0.560046
 C         3.206635        -0.484851        -0.250419
 O         2.003233        -1.188045        -0.321518
 H        -0.451933         1.105082         0.043243
 H        -0.278144        -0.351659        -1.202601
 H        -0.621975        -0.587855         0.640531
 H         1.775095         1.186962         1.955448
 H         1.750111        -0.582333         2.382582
 H         4.014366        -0.917718         1.746078
 H         2.794277         2.570823         0.877231
 H         4.044351         2.330447        -0.451061
 H         2.315008         1.166303        -1.517026
 H         4.005361        -1.074106        -0.725009
