19
Iteration:  2090charge 0 multiplicity 1
 C         0.030067         0.484577        -0.087413
 C         1.448772        -0.005668         0.215010
 C         2.009133        -0.059419         1.652984
 C         3.519516        -0.141146         1.189603
 O         3.940558         1.221108         1.164546
 C         3.143513         1.799251         0.173188
 C         2.546872         0.713279        -0.607488
 C         3.311449        -0.501671        -0.286979
 O         2.080484        -1.324516        -0.239139
 H        -0.397411         1.336569         0.770159
 H        -0.015904         0.961324        -1.125657
 H        -0.737273        -0.306765        -0.009819
 H         2.021387         0.775075         2.350357
 H         1.545517        -1.059692         2.173815
 H         3.988890        -0.516093         2.028083
 H         2.391309         2.599543         0.467739
 H         3.880786         2.385731        -0.375472
 H         2.479247         1.056085        -1.724846
 H         4.102650        -0.994878        -0.741821
