19
Iteration:  4426
 C        -0.099775         0.066948         0.007977
 C         1.437649         0.083048         0.171298
 C         1.942101         0.268362         1.581219
 C         3.427677        -0.108617         1.239329
 O         4.165256         1.189547         1.125591
 C         3.359112         1.856230         0.166489
 C         2.529338         0.762253        -0.603827
 C         3.218260        -0.561871        -0.255513
 O         2.035226        -1.324358        -0.220987
 H        -0.289482         0.840901        -0.761890
 H        -0.637528        -0.799135        -0.209738
 H        -0.618339         0.455845         0.955666
 H         1.998755         1.412927         1.896166
 H         1.181025        -0.262191         2.219545
 H         3.859593        -0.830134         2.011778
 H         2.834321         2.746795         0.625265
 H         3.967550         2.315383        -0.657936
 H         2.330875         0.897609        -1.691817
 H         4.107280        -0.961944        -0.936204
