19
Iteration:  3149
 C        -0.123550         0.068190        -0.138221
 C         1.391259         0.072326         0.178042
 C         1.987800         0.095453         1.713120
 C         3.450892        -0.085502         1.247578
 O         4.152745         1.182851         1.204377
 C         3.433254         1.860044         0.084784
 C         2.576983         0.779272        -0.613208
 C         3.184444        -0.454065        -0.161034
 O         1.961298        -1.207939        -0.295267
 H        -0.570683         0.468799         0.718182
 H        -0.558215         0.692666        -0.946777
 H        -0.555066        -0.917228        -0.375382
 H         1.706486         0.873687         2.443471
 H         1.681252        -0.833490         2.078238
 H         4.016784        -0.765226         1.851617
 H         2.751237         2.589094         0.582399
 H         4.088554         2.348860        -0.633230
 H         2.522070         0.863032        -1.624018
 H         3.990355        -0.880762        -0.763923
