19
Iteration:  4490charge 0 multiplicity 1
 C         0.002751         0.217334        -0.085295
 C         1.405861         0.062370         0.234708
 C         1.952672         0.035325         1.683350
 C         3.443019        -0.041431         1.305006
 O         4.042270         1.288809         1.081051
 C         3.376090         1.851528        -0.047175
 C         2.557521         0.696323        -0.605107
 C         3.253023        -0.560662        -0.167934
 O         1.960117        -1.299490        -0.200220
 H        -0.062200         1.276825         0.351137
 H        -0.186371         0.283745        -1.114573
 H        -0.704822        -0.292716         0.531462
 H         1.735515         0.891934         2.444480
 H         1.738690        -0.953012         2.160980
 H         4.186089        -0.584469         1.989749
 H         2.684528         2.663051         0.312485
 H         4.113845         2.181622        -0.783029
 H         2.199097         0.812090        -1.629292
 H         4.070048        -1.175438        -0.561293
