19
Iteration:  2818
 C        -0.159665         0.097414        -0.136114
 C         1.420291         0.128634         0.197733
 C         1.870381         0.101238         1.648084
 C         3.530916        -0.137741         1.233231
 O         4.181025         1.168839         1.114534
 C         3.330903         1.878246         0.177486
 C         2.527522         0.802656        -0.562909
 C         3.300653        -0.500885        -0.163712
 O         2.005650        -1.234474        -0.299849
 H        -0.626390         1.139227         0.170823
 H        -0.484911        -0.260492        -1.071958
 H        -0.530141        -0.533071         0.663486
 H         1.663453         0.878755         2.337236
 H         1.586925        -0.807490         2.271382
 H         3.999758        -0.855581         1.845269
 H         2.866098         2.678718         0.628603
 H         3.947200         2.382595        -0.554922
 H         2.405184         1.015688        -1.689812
 H         4.046922        -0.958576        -0.756596
