19
Iteration:   740
 C        -0.010789         0.178013        -0.014831
 C         1.478847         0.071716         0.166477
 C         1.970951        -0.264724         1.640930
 C         3.446543        -0.214112         1.211076
 O         3.950917         1.109564         1.358420
 C         3.358126         1.962436         0.290787
 C         2.537242         0.991957        -0.524870
 C         3.274728        -0.385658        -0.352608
 O         2.034630        -1.165684        -0.563020
 H        -0.418212         0.216702        -0.980721
 H        -0.590521        -0.530622         0.527922
 H        -0.353631         1.158861         0.333710
 H         1.725453         0.527930         2.507603
 H         1.561546        -1.255824         1.847133
 H         4.082073        -0.850757         1.827277
 H         2.710213         2.663000         0.757896
 H         4.068269         2.400774        -0.434931
 H         2.390896         1.316058        -1.511156
 H         4.094519        -0.760690        -1.001108
