19
Iteration:  2010charge 0 multiplicity 1
 C        -0.129463        -0.023543        -0.006507
 C         1.396077         0.011021         0.204311
 C         1.921980         0.166247         1.636721
 C         3.391428        -0.107684         1.186395
 O         4.067148         1.129825         1.214564
 C         3.536772         1.887603         0.180423
 C         2.574219         0.876879        -0.519136
 C         3.241983        -0.453780        -0.303295
 O         1.990553        -1.194130        -0.369339
 H        -0.707271         0.690596         0.619927
 H        -0.354034         0.194505        -1.149902
 H        -0.401322        -1.120906         0.165906
 H         1.661851         1.196295         1.903594
 H         1.469268        -0.456836         2.434617
 H         3.989365        -0.893409         1.797318
 H         3.085465         2.852701         0.588407
 H         4.318122         2.158465        -0.470635
 H         2.387303         1.137155        -1.510605
 H         4.138054        -0.947161        -0.842507
