19
Iteration:   230charge 0 multiplicity 1
 C        -0.085919         0.122757         0.029297
 C         1.413110         0.092180         0.140113
 C         2.072266        -0.400102         1.420274
 C         3.500232        -0.329017         1.049472
 O         4.105344         0.923842         1.426718
 C         3.175144         1.907273         0.874726
 C         2.465848         1.132344        -0.313033
 C         3.261340        -0.206155        -0.541774
 O         2.089150        -0.931531        -0.849832
 H        -0.566115        -0.791814         0.436406
 H        -0.633670         1.066000         0.286502
 H        -0.320768         0.011926        -1.107758
 H         1.795287         0.250903         2.324413
 H         1.717414        -1.453961         1.654701
 H         4.238074        -1.076034         1.459202
 H         2.523680         2.340445         1.597153
 H         3.890899         2.735937         0.419440
 H         2.317349         1.570104        -1.221666
 H         4.014027        -0.294367        -1.391253
