19
Iteration:    72
 C        -0.089294         0.126531        -0.036178
 C         1.411253         0.004850         0.159073
 C         2.055963        -0.582208         1.424519
 C         3.515797        -0.385411         0.932511
 O         4.017773         0.869337         1.482525
 C         3.241750         1.871809         0.947674
 C         2.510167         1.191344        -0.210584
 C         3.284979         0.001253        -0.568640
 O         2.073042        -0.792583        -0.905231
 H        -0.392865        -0.892137        -0.512081
 H        -0.528606         0.139878         0.981449
 H        -0.481390         0.939815        -0.658942
 H         1.674675         0.055239         2.312938
 H         1.884719        -1.706986         1.597102
 H         4.352719        -1.081735         1.083726
 H         2.445131         2.243862         1.603183
 H         3.843922         2.681904         0.562561
 H         2.180423         1.858508        -1.095826
 H         4.110829        -0.133926        -1.295955
