19
Iteration:  3104charge 0 multiplicity 1
 C        -0.038456         0.282671         0.019712
 C         1.463323         0.012644         0.150978
 C         1.953095         0.083677         1.644107
 C         3.448832        -0.122062         1.284313
 O         4.025737         1.163479         1.233003
 C         3.262115         1.893432         0.146242
 C         2.529318         0.755161        -0.689370
 C         3.356316        -0.499418        -0.267998
 O         2.009544        -1.272081        -0.327903
 H        -0.290899         1.314901         0.169990
 H        -0.343748        -0.003485        -0.990463
 H        -0.685369        -0.476535         0.530117
 H         1.756474         0.930336         2.279626
 H         1.595993        -0.700722         2.288717
 H         4.095572        -0.899450         1.792982
 H         2.549094         2.651665         0.559455
 H         4.053607         2.251395        -0.466729
 H         2.446411         0.830246        -1.715754
 H         4.270475        -0.972013        -0.778722
