19
Iteration:   835charge 0 multiplicity 1
 C        -0.086532         0.162273        -0.140292
 C         1.334254         0.046731         0.201374
 C         1.966187        -0.096469         1.685362
 C         3.515441        -0.169915         1.186355
 O         4.093731         1.096531         1.288352
 C         3.367154         1.912994         0.307267
 C         2.502167         0.929496        -0.486328
 C         3.257554        -0.404206        -0.374025
 O         2.052208        -1.167273        -0.463994
 H        -0.735202         0.669875         0.669897
 H        -0.319336         0.507790        -1.243821
 H        -0.526977        -0.826639        -0.076624
 H         1.957247         0.712337         2.284061
 H         1.521164        -0.920831         2.274722
 H         4.092288        -0.920727         1.609033
 H         2.590694         2.496695         0.855180
 H         4.131419         2.492978        -0.183279
 H         2.220933         1.220883        -1.499945
 H         4.168748        -0.806678        -0.831396
