19
Iteration:  1921charge 0 multiplicity 1
 C         0.053161         0.457747        -0.017288
 C         1.453850        -0.004796         0.214044
 C         2.083038        -0.110720         1.560765
 C         3.507073        -0.127642         1.257685
 O         3.942821         1.260105         1.219438
 C         3.147406         1.917702         0.188649
 C         2.516962         0.742498        -0.559696
 C         3.294935        -0.624432        -0.293875
 O         2.044035        -1.330750        -0.343068
 H         0.108274         1.516027        -0.024235
 H        -0.220997         0.253310        -1.094841
 H        -0.908076         0.277118         0.675394
 H         1.844938         0.826476         2.162985
 H         1.681595        -0.937241         2.039111
 H         4.165567        -0.646091         2.057698
 H         2.362623         2.621769         0.552432
 H         3.753346         2.458938        -0.470356
 H         2.298556         0.854834        -1.626380
 H         4.154756        -1.045388        -0.888915
