19
Iteration:  3283
 C        -0.082427         0.092013        -0.165351
 C         1.369890         0.041533         0.237764
 C         1.964833         0.056045         1.712434
 C         3.479288         0.003494         1.320738
 O         4.113010         1.170994         1.162342
 C         3.460331         1.917437        -0.010887
 C         2.567185         0.761430        -0.614713
 C         3.218300        -0.556354        -0.207267
 O         1.922544        -1.194593        -0.197879
 H        -0.547742        -0.915290        -0.450133
 H        -0.547025         0.520884         0.798757
 H        -0.074415         0.873694        -0.910033
 H         1.583228         0.871229         2.366975
 H         1.541608        -0.900249         2.002132
 H         4.016153        -0.689816         2.026421
 H         2.911098         2.856537         0.274194
 H         4.317935         2.242497        -0.701891
 H         2.179080         0.833750        -1.732296
 H         4.029320        -1.037687        -0.765279
