19
Iteration:     7
 C        -0.077104         0.117800        -0.000444
 C         1.422556         0.031677         0.157808
 C         2.099610        -0.641838         1.367973
 C         3.596218        -0.407314         0.941438
 O         4.033801         0.832006         1.503260
 C         3.167524         1.904414         0.995687
 C         2.432211         1.253461        -0.190173
 C         3.266899         0.002210        -0.591004
 O         2.082501        -0.745582        -0.987920
 H        -0.608832         0.514385         0.951526
 H        -0.390465         0.652481        -0.903653
 H        -0.508567        -0.897510        -0.074397
 H         1.686082        -0.199280         2.324666
 H         1.800894        -1.703825         1.350065
 H         4.170824        -1.345614         1.087433
 H         2.514931         2.181595         1.851728
 H         3.992834         2.733822         0.818276
 H         2.078049         1.823383        -1.098669
 H         4.219747        -0.192701        -1.137575
