19
Iteration:  1830charge 0 multiplicity 1
 C        -0.101983         0.010786        -0.134026
 C         1.377194         0.137214         0.173479
 C         1.891982         0.086639         1.668260
 C         3.443345        -0.145941         1.208525
 O         4.209667         1.125367         1.150188
 C         3.410062         1.921626         0.156912
 C         2.521921         0.881421        -0.541722
 C         3.219169        -0.492127        -0.213721
 O         1.972346        -1.215882        -0.271638
 H        -0.677342         0.526237         0.728179
 H        -0.368576         0.424351        -1.087320
 H        -0.279053        -1.101656         0.008779
 H         1.931304         1.013275         2.151503
 H         1.415929        -0.718722         2.231720
 H         4.084793        -0.839658         1.683876
 H         2.982413         2.701448         0.827463
 H         4.095698         2.458514        -0.496227
 H         2.331174         1.072358        -1.688818
 H         4.138530        -0.819593        -0.622661
