19
Iteration:   825
 C        -0.083008         0.254813        -0.156717
 C         1.421978         0.058103         0.168901
 C         2.023469        -0.154099         1.688837
 C         3.488675        -0.181605         1.166570
 O         4.098833         1.129053         1.279136
 C         3.271355         1.927856         0.389344
 C         2.485408         0.891083        -0.524245
 C         3.227375        -0.441446        -0.333238
 O         2.053936        -1.225509        -0.471742
 H        -0.353999         1.186458         0.409535
 H        -0.391600         0.296960        -1.255232
 H        -0.422740        -0.661353         0.275999
 H         1.813322         0.745405         2.167229
 H         1.612877        -0.993976         2.239279
 H         4.203590        -0.723732         1.689255
 H         2.638679         2.599502         1.064710
 H         3.900073         2.629636        -0.179546
 H         2.226647         1.124138        -1.526536
 H         4.015657        -0.857004        -0.992825
