19
Iteration:  1364charge 0 multiplicity 1
 C        -0.147371         0.080128        -0.117475
 C         1.346357         0.025962         0.216468
 C         1.963175         0.142393         1.593059
 C         3.490731        -0.096563         1.253403
 O         4.216159         1.132329         1.114777
 C         3.373094         1.884819         0.214274
 C         2.555515         0.846983        -0.508983
 C         3.219484        -0.513435        -0.237956
 O         1.971524        -1.244983        -0.269488
 H        -0.874910         0.519537         0.594392
 H        -0.079166         0.650822        -0.976863
 H        -0.444986        -1.030815        -0.293509
 H         1.790266         1.322580         1.803991
 H         1.345290        -0.509571         2.232189
 H         4.091538        -0.813451         1.813968
 H         2.657881         2.584145         0.785106
 H         4.117791         2.337238        -0.392065
 H         2.377645         1.200971        -1.581218
 H         4.115271        -0.843972        -0.854545
