19
Iteration:  1425charge 0 multiplicity 1
 C         0.036667         0.367521         0.026606
 C         1.463600         0.040851         0.138215
 C         2.037549        -0.132071         1.678997
 C         3.458760        -0.118416         1.290189
 O         3.906137         1.309571         1.227840
 C         3.266982         1.893950         0.025835
 C         2.590319         0.723565        -0.588767
 C         3.269965        -0.602708        -0.179535
 O         1.994668        -1.263589        -0.369837
 H        -0.069625         1.310714         0.596630
 H        -0.285977         0.654479        -1.030747
 H        -0.791327        -0.295576         0.355004
 H         1.906132         0.541091         2.425865
 H         1.604460        -1.151579         1.928439
 H         4.276411        -0.614061         1.773619
 H         2.624278         2.723184         0.186250
 H         4.048983         2.363250        -0.704604
 H         2.449143         0.829503        -1.693489
 H         4.040673        -1.107054        -0.654134
