19
Iteration:  4957charge 0 multiplicity 1
 C        -0.261881         0.152426        -0.037413
 C         1.469561         0.084112         0.223565
 C         1.988770         0.296597         1.597338
 C         3.445860        -0.028432         1.337787
 O         4.195326         1.209444         0.971530
 C         3.324271         1.820408        -0.008064
 C         2.579817         0.682707        -0.646089
 C         3.280948        -0.640936        -0.098737
 O         1.992176        -1.301300        -0.118490
 H        -0.582640        -0.706344        -0.657741
 H        -0.782763         0.182897         0.847961
 H        -0.450231         1.076624        -0.643307
 H         1.741482         1.236259         2.194687
 H         1.582601        -0.500932         2.186545
 H         4.153657        -0.523425         2.127682
 H         2.610278         2.571516         0.368077
 H         3.959468         2.356328        -0.723271
 H         2.355353         0.501530        -1.688130
 H         4.198157        -1.066546        -0.475003
