19
Iteration:  4150
 C        -0.069363         0.163119        -0.136350
 C         1.428304         0.050357         0.273932
 C         2.039933        -0.061558         1.758260
 C         3.463636        -0.160975         1.267817
 O         4.098661         1.200619         1.053078
 C         3.296789         1.979633         0.144354
 C         2.609715         0.844933        -0.592149
 C         3.251373        -0.568685        -0.184548
 O         1.918780        -1.177961        -0.310648
 H        -0.856911         0.538621         0.552959
 H        -0.093229         1.036162        -0.887416
 H        -0.331354        -0.779639        -0.580986
 H         1.961779         0.627649         2.581364
 H         1.538820        -1.035555         2.111879
 H         4.242583        -0.729459         1.872585
 H         2.542726         2.652574         0.646372
 H         3.973546         2.595301        -0.483864
 H         2.164121         0.956149        -1.664534
 H         4.042419        -1.121008        -0.796592
