19
Iteration:   250
 C         0.018802         0.232452         0.023135
 C         1.446024         0.019543         0.122055
 C         2.000511        -0.571815         1.485496
 C         3.522888        -0.316520         1.028469
 O         4.019767         0.967938         1.432208
 C         3.161515         1.897005         0.738933
 C         2.512614         1.148760        -0.370482
 C         3.348546        -0.194536        -0.496410
 O         2.022015        -0.914203        -0.806469
 H        -0.569787        -0.754293         0.019972
 H        -0.219303         0.708359         0.994024
 H        -0.437095         0.860635        -0.730310
 H         1.724258         0.051608         2.450257
 H         1.770246        -1.630734         1.699679
 H         4.326205        -0.981146         1.414083
 H         2.347350         2.191588         1.408030
 H         3.573871         2.818764         0.373637
 H         2.190490         1.706273        -1.259369
 H         4.204946        -0.343024        -1.164515
