19
Iteration:   910charge 0 multiplicity 1
 C         0.048791         0.250948        -0.032820
 C         1.453956         0.066673         0.128728
 C         1.968056        -0.063900         1.583165
 C         3.461905        -0.197246         1.211292
 O         4.027710         1.182199         1.284744
 C         3.255417         1.913796         0.283727
 C         2.550730         0.898624        -0.505054
 C         3.288040        -0.492797        -0.306605
 O         2.007938        -1.293999        -0.449890
 H        -0.505577        -0.730718        -0.036136
 H        -0.259889         0.948200         0.831288
 H        -0.322036         0.712275        -0.891330
 H         1.619582         0.777702         2.126640
 H         1.349559        -0.971618         1.977212
 H         4.028002        -0.812874         1.802758
 H         2.626543         2.669164         0.735549
 H         3.939026         2.448213        -0.354941
 H         2.149516         1.169134        -1.512350
 H         4.193258        -0.874822        -0.781562
