19
Iteration:   553charge 0 multiplicity 1
 C        -0.123288         0.106741        -0.039713
 C         1.409050         0.139320         0.184937
 C         1.939581        -0.264861         1.589853
 C         3.506852        -0.240722         1.139497
 O         4.108561         1.019328         1.313853
 C         3.319181         1.945943         0.533912
 C         2.526679         0.991547        -0.428205
 C         3.274737        -0.364286        -0.462032
 O         2.053041        -1.044040        -0.621169
 H        -0.583766         0.916996        -0.714299
 H        -0.123933        -0.846508        -0.655545
 H        -0.658706         0.080410         0.910295
 H         1.648898         0.627773         2.254619
 H         1.516282        -1.218152         2.121801
 H         4.055227        -1.018049         1.690866
 H         2.620279         2.480769         1.179474
 H         4.031598         2.783857         0.103529
 H         2.227866         1.438773        -1.484903
 H         4.159514        -0.549843        -1.108722
