19
Iteration:  4762charge 0 multiplicity 1
 C        -0.121625         0.013803         0.030680
 C         1.405834         0.011452         0.205090
 C         1.931819         0.376274         1.578970
 C         3.428133        -0.015566         1.292858
 O         4.232547         1.167139         1.090645
 C         3.463450         1.822293         0.052047
 C         2.560283         0.737365        -0.753576
 C         3.184808        -0.542316        -0.176956
 O         1.916117        -1.261368        -0.116403
 H        -0.267209        -0.930185        -0.622966
 H        -0.604600        -0.231407         0.936957
 H        -0.545911         0.908384        -0.540854
 H         1.904792         1.476485         1.823072
 H         1.411451        -0.188320         2.309623
 H         3.938486        -0.692075         2.132800
 H         2.882375         2.731867         0.357194
 H         4.321965         2.105503        -0.683615
 H         2.033372         0.673237        -1.747963
 H         4.024992        -1.121940        -0.691026
