19
Iteration:  2383charge 0 multiplicity 1
 C        -0.022850         0.254394        -0.097325
 C         1.450407         0.060496         0.180250
 C         2.028468        -0.001443         1.695455
 C         3.467364        -0.123939         1.289287
 O         4.080345         1.199062         1.175905
 C         3.257802         1.877038         0.134485
 C         2.509902         0.794437        -0.572959
 C         3.270542        -0.564016        -0.259098
 O         1.978235        -1.232205        -0.308241
 H        -0.300755         1.364327        -0.221635
 H        -0.308153        -0.252365        -1.000332
 H        -0.689022        -0.169104         0.600097
 H         2.016326         0.894159         2.183923
 H         1.580888        -0.921378         2.245652
 H         4.107821        -0.839563         1.816546
 H         2.577820         2.496651         0.599841
 H         3.795510         2.604201        -0.502629
 H         2.305659         0.923794        -1.754450
 H         4.145481        -1.071685        -0.681999
