19
Iteration:  3959
 C        -0.124802         0.034848        -0.036028
 C         1.441626        -0.011892         0.243225
 C         1.986956         0.084889         1.603890
 C         3.413072        -0.090463         1.244791
 O         4.069743         1.108293         1.224868
 C         3.461957         1.920652         0.150173
 C         2.528989         0.849901        -0.582647
 C         3.221521        -0.466278        -0.259246
 O         1.991823        -1.163620        -0.369681
 H        -0.652128         0.701426         0.701494
 H        -0.377063         0.563288        -0.888944
 H        -0.629839        -0.953548         0.022300
 H         1.874037         1.194335         1.981784
 H         1.641840        -0.618031         2.372375
 H         4.098279        -0.847970         1.725978
 H         2.960483         2.793909         0.617358
 H         4.283254         2.262387        -0.516829
 H         2.351666         0.926637        -1.621809
 H         4.018740        -0.935459        -0.839886
