19
Iteration:  2629
 C         0.059359         0.242414        -0.104450
 C         1.407086        -0.004351         0.201855
 C         2.003490        -0.005760         1.623101
 C         3.460288        -0.055839         1.204790
 O         4.057927         1.226327         1.208113
 C         3.300560         1.875195         0.085475
 C         2.524847         0.797066        -0.552888
 C         3.212730        -0.502809        -0.257981
 O         1.978415        -1.316861        -0.214280
 H        -0.281656         1.227281         0.025093
 H        -0.225815         0.054827        -1.206219
 H        -0.616690        -0.330820         0.535737
 H         2.042476         0.863054         2.371365
 H         1.660310        -0.810890         2.220855
 H         4.045704        -0.798184         1.792804
 H         2.570598         2.746921         0.506346
 H         4.065106         2.354664        -0.502825
 H         2.254106         1.048108        -1.590265
 H         3.990305        -0.998204        -0.842583
