19
Iteration:  3878
 C         0.036043         0.419827         0.027045
 C         1.440860        -0.061050         0.188957
 C         1.951222         0.016960         1.539670
 C         3.490185        -0.067626         1.233194
 O         4.051254         1.218212         1.224231
 C         3.173162         1.805160         0.201239
 C         2.531450         0.719142        -0.644698
 C         3.313019        -0.537914        -0.267901
 O         2.052478        -1.300890        -0.332140
 H        -0.251168         1.260857         0.619908
 H        -0.312619         0.546320        -1.028809
 H        -0.752372        -0.222074         0.297468
 H         1.664592         0.974236         2.141389
 H         1.750535        -0.768286         2.292140
 H         4.084710        -0.713366         1.831409
 H         2.376718         2.346666         0.729603
 H         3.823386         2.568126        -0.275496
 H         2.368335         0.880034        -1.747699
 H         4.068932        -1.027766        -0.859340
