19
Iteration:  2964charge 0 multiplicity 1
 C        -0.072839         0.141881        -0.142309
 C         1.428235         0.002004         0.213032
 C         1.919543        -0.009781         1.674390
 C         3.443865        -0.035769         1.229827
 O         4.138264         1.192007         1.192108
 C         3.327864         1.865554         0.120980
 C         2.559109         0.797724        -0.553240
 C         3.303379        -0.449043        -0.241523
 O         1.921378        -1.216701        -0.284949
 H        -0.101624         1.171980        -0.408057
 H        -0.277286        -0.653929        -0.938636
 H        -0.654031        -0.012787         0.808807
 H         1.645303         0.871849         2.366839
 H         1.654453        -0.918887         2.213310
 H         4.217302        -0.666034         1.773868
 H         2.804822         2.638753         0.634975
 H         4.195609         2.213411        -0.546235
 H         2.289183         1.061599        -1.521914
 H         4.066354        -0.996966        -0.903416
