19
Iteration:  1898charge 0 multiplicity 1
 C         0.007468         0.285915        -0.032891
 C         1.438906         0.076354         0.163255
 C         1.938037        -0.164428         1.711196
 C         3.435941        -0.079966         1.233546
 O         3.993683         1.207232         1.165157
 C         3.291512         1.883363         0.112875
 C         2.643180         0.772712        -0.629546
 C         3.303020        -0.487294        -0.233527
 O         1.998732        -1.245773        -0.318111
 H        -0.089778         1.241194         0.462995
 H        -0.485842         0.362274        -0.976264
 H        -0.620021        -0.333824         0.783865
 H         1.706708         0.670932         2.415901
 H         1.556352        -1.053662         2.021440
 H         4.162229        -0.656839         1.872387
 H         2.417058         2.502783         0.440394
 H         4.004799         2.492689        -0.421434
 H         2.316299         0.910315        -1.721466
 H         4.164991        -0.898283        -0.727091
