19
Iteration:  1710charge 0 multiplicity 1
 C        -0.083196         0.161021         0.003939
 C         1.454005         0.072168         0.169502
 C         1.957867        -0.022050         1.665152
 C         3.399578        -0.173946         1.240705
 O         4.052283         1.196103         1.245593
 C         3.376139         1.919926         0.107346
 C         2.589173         0.838989        -0.571784
 C         3.231682        -0.455215        -0.290325
 O         2.011654        -1.238857        -0.343165
 H        -0.381989         1.235588        -0.247184
 H        -0.267510        -0.496489        -0.878286
 H        -0.587361        -0.139372         0.920611
 H         1.776110         0.805479         2.306239
 H         1.598004        -1.013639         2.072903
 H         4.010134        -0.907043         1.772433
 H         2.740415         2.712103         0.510265
 H         4.088862         2.261711        -0.592051
 H         2.533115         1.100935        -1.714867
 H         4.070374        -0.901095        -0.873962
