19
Iteration:   119charge 0 multiplicity 1
 C        -0.024873         0.362772         0.149483
 C         1.489591        -0.052970         0.115066
 C         2.052869        -0.701246         1.354712
 C         3.601216        -0.330617         1.006052
 O         3.907347         0.925022         1.479034
 C         3.031901         1.881088         0.868531
 C         2.467018         1.119433        -0.325142
 C         3.425460        -0.112025        -0.583080
 O         2.093429        -0.867669        -0.905061
 H        -0.196698         1.109171        -0.756055
 H        -0.697175        -0.499335         0.291978
 H         0.102885         0.912551         1.071530
 H         1.884006        -0.134752         2.387093
 H         1.696969        -1.696864         1.390052
 H         4.400154        -0.931850         1.404002
 H         2.156092         2.095653         1.463063
 H         3.636401         2.863613         0.614669
 H         2.027418         1.698476        -1.155574
 H         4.167357        -0.268677        -1.332111
