19
Iteration:  1617
 C        -0.030417         0.402330         0.000856
 C         1.442174        -0.030017         0.177831
 C         2.000978        -0.051774         1.652134
 C         3.520800        -0.067092         1.299034
 O         3.927088         1.311525         1.261143
 C         3.351349         1.829787         0.118192
 C         2.517261         0.757302        -0.638551
 C         3.271640        -0.591713        -0.286054
 O         2.031787        -1.314182        -0.358830
 H        -0.486132         0.876732         0.838265
 H        -0.095285         1.030618        -0.909661
 H        -0.592643        -0.632863        -0.126936
 H         1.668815         0.962020         2.043737
 H         1.601353        -0.873464         2.117675
 H         4.257297        -0.668118         1.810844
 H         2.649969         2.592241         0.392946
 H         4.227772         2.168781        -0.506510
 H         2.196124         0.761416        -1.593065
 H         4.050598        -1.098568        -0.776338
