19
Iteration:  4109
 C        -0.145736         0.018780         0.023434
 C         1.356071        -0.003272         0.203959
 C         1.934553         0.118728         1.593287
 C         3.418752        -0.131002         1.224544
 O         4.141192         1.088827         1.212877
 C         3.444950         1.974094         0.202213
 C         2.564961         0.923092        -0.609988
 C         3.213559        -0.472720        -0.345040
 O         2.047699        -1.290158        -0.333130
 H        -0.503434         0.834281         0.754621
 H        -0.363575         0.506851        -0.951506
 H        -0.871430        -0.817969         0.070606
 H         1.892993         1.176837         1.829871
 H         1.532212        -0.484251         2.342241
 H         3.903275        -0.837351         1.945951
 H         2.879479         2.771715         0.721247
 H         4.235984         2.555090        -0.323084
 H         2.425593         1.289769        -1.569175
 H         4.111702        -0.854045        -0.801855
