19
Iteration:  2604charge 0 multiplicity 1
 C        -0.001486         0.424407         0.006748
 C         1.435409        -0.006857         0.235502
 C         1.987071        -0.112698         1.681778
 C         3.519738        -0.065579         1.265537
 O         3.910378         1.279357         1.173736
 C         3.248125         1.896120         0.060505
 C         2.613956         0.694875        -0.632038
 C         3.351824        -0.607511        -0.235543
 O         2.004140        -1.254461        -0.336273
 H        -0.303669         1.441031        -0.150009
 H        -0.302600         0.027919        -0.948897
 H        -0.706983        -0.018080         0.796576
 H         1.678814         0.636725         2.417366
 H         1.742737        -1.045564         2.114770
 H         4.259590        -0.599881         1.853414
 H         2.485597         2.679840         0.275677
 H         4.112860         2.320733        -0.404963
 H         2.204805         0.829876        -1.571050
 H         4.047375        -1.280544        -0.766163
