19
Iteration:   461charge 0 multiplicity 1
 C        -0.039826         0.355112         0.200604
 C         1.498120         0.006214         0.162496
 C         2.003437        -0.439963         1.468042
 C         3.489816        -0.336715         1.086385
 O         3.893067         1.148829         1.509227
 C         3.215354         1.963330         0.490554
 C         2.524190         0.977302        -0.465875
 C         3.369534        -0.342132        -0.468116
 O         2.081509        -1.096667        -0.769920
 H        -0.650304        -0.532584         0.193450
 H        -0.276934         1.094035         0.933580
 H        -0.213513         0.794517        -0.850680
 H         1.654480         0.271261         2.227592
 H         1.692598        -1.557656         1.755850
 H         4.358107        -0.811156         1.481267
 H         2.428437         2.700312         0.848012
 H         3.996366         2.547664        -0.005431
 H         2.220963         1.214121        -1.398492
 H         4.175265        -0.689277        -1.101919
