19
Iteration:   475
 C        -0.036361         0.318626         0.059973
 C         1.420546        -0.000575         0.155638
 C         2.066231        -0.421864         1.537716
 C         3.532647        -0.244623         1.166419
 O         3.938416         1.088513         1.447563
 C         3.195604         1.945106         0.475458
 C         2.589440         0.980654        -0.469801
 C         3.261707        -0.344169        -0.483656
 O         2.075365        -1.060354        -0.709803
 H        -0.722373        -0.598144        -0.233472
 H        -0.393639         0.531097         1.137843
 H        -0.238442         1.139453        -0.601678
 H         1.833533         0.148544         2.471413
 H         1.730169        -1.553428         1.691198
 H         4.120362        -1.059626         1.635970
 H         2.488383         2.536077         1.049236
 H         3.904516         2.743937        -0.047284
 H         2.324587         1.506268        -1.471329
 H         4.083179        -0.577820        -1.138685
