19
Iteration:  3485
 C        -0.044116         0.204238        -0.173079
 C         1.367869         0.088890         0.268904
 C         1.985147         0.095675         1.679475
 C         3.471251        -0.117081         1.178222
 O         4.061051         1.126456         1.175914
 C         3.363366         1.822009         0.203549
 C         2.478753         0.905601        -0.589410
 C         3.278336        -0.500246        -0.231308
 O         2.038937        -1.308478        -0.273701
 H        -0.690681         0.967017         0.269148
 H        -0.120725         0.227800        -1.311894
 H        -0.673939        -0.657487         0.199834
 H         2.002095         1.020590         2.267800
 H         1.575542        -0.728413         2.222243
 H         4.148500        -0.704660         1.886349
 H         2.803720         2.680534         0.609125
 H         4.031270         2.184061        -0.592970
 H         2.097174         1.027948        -1.618348
 H         4.128607        -1.033614        -0.792621
