19
Iteration:  3042
 C        -0.053412         0.284936        -0.108114
 C         1.422978        -0.002127         0.198024
 C         1.960758        -0.010161         1.673619
 C         3.488859        -0.180245         1.207412
 O         4.023936         1.245780         1.139619
 C         3.258789         1.914581         0.182302
 C         2.570293         0.753853        -0.501555
 C         3.274869        -0.545641        -0.205445
 O         2.049382        -1.217200        -0.315678
 H        -0.211243         1.158121        -0.715190
 H        -0.385154        -0.620106        -0.786637
 H        -0.646075         0.382039         0.826358
 H         1.813851         0.922699         2.354266
 H         1.626704        -0.958900         2.053993
 H         4.197812        -0.729313         1.765590
 H         2.628813         2.681938         0.645321
 H         3.972367         2.393952        -0.592850
 H         2.484006         0.811326        -1.584756
 H         3.975354        -1.018081        -0.894432
