19
Iteration:  4811
 C        -0.006414         0.265778        -0.139520
 C         1.429824         0.017465         0.214704
 C         2.023014         0.203525         1.755442
 C         3.467896         0.036388         1.297396
 O         4.116716         1.242425         1.025356
 C         3.322218         1.829511        -0.142930
 C         2.520510         0.661034        -0.640597
 C         3.204495        -0.641258        -0.111671
 O         1.931122        -1.345510        -0.034337
 H        -0.148334         0.458766        -1.198039
 H        -0.685626        -0.612965         0.187629
 H        -0.245085         1.195885         0.383190
 H         1.744310         1.133086         2.228039
 H         1.577990        -0.682478         2.313563
 H         4.032913        -0.474149         2.038444
 H         2.591113         2.535996         0.239453
 H         4.025718         2.225529        -0.828644
 H         2.507812         0.586697        -1.718575
 H         4.002417        -1.126492        -0.682363
