19
Iteration:   487
 C        -0.045972         0.264760        -0.036895
 C         1.476643         0.058338         0.137321
 C         2.054788        -0.404814         1.544808
 C         3.520789        -0.256299         1.136714
 O         3.986704         1.053912         1.337070
 C         3.226880         1.925104         0.571489
 C         2.483039         1.018704        -0.448947
 C         3.339929        -0.307999        -0.393185
 O         1.983393        -1.054210        -0.638196
 H        -0.441856        -0.632715        -0.707730
 H        -0.514318         0.217055         1.023457
 H        -0.369870         1.203710        -0.422658
 H         1.815315         0.242805         2.433039
 H         1.831510        -1.501123         1.760677
 H         4.373848        -0.790460         1.608736
 H         2.513052         2.474748         1.176608
 H         4.028565         2.645644         0.081251
 H         2.166839         1.277506        -1.568049
 H         4.107431        -0.639354        -1.103716
