19
Iteration:  2599charge 0 multiplicity 1
 C        -0.020748         0.429441         0.034697
 C         1.445175        -0.017300         0.242356
 C         1.995494        -0.134018         1.659289
 C         3.483712        -0.044134         1.211141
 O         3.887300         1.277240         1.171953
 C         3.244291         1.895601         0.016948
 C         2.656593         0.696403        -0.570745
 C         3.350295        -0.608785        -0.180088
 O         2.001340        -1.253306        -0.364648
 H        -0.262254         1.552337        -0.176908
 H        -0.355568         0.045603        -0.969414
 H        -0.582815         0.019406         0.829878
 H         1.939271         0.688747         2.410480
 H         1.680578        -1.150353         2.175902
 H         4.144601        -0.662328         1.846046
 H         2.472173         2.577638         0.417441
 H         4.110698         2.392829        -0.527578
 H         2.298808         0.812203        -1.687199
 H         4.181711        -1.202629        -0.593939
