19
Iteration:  3314
 C        -0.118416         0.089528        -0.090466
 C         1.408306         0.084978         0.167782
 C         1.965854         0.182644         1.613916
 C         3.481053        -0.121346         1.326897
 O         4.135344         1.134191         1.114172
 C         3.354229         1.940840         0.052977
 C         2.576815         0.783869        -0.583543
 C         3.250104        -0.565439        -0.139089
 O         1.974406        -1.262803        -0.268760
 H        -0.619246        -0.852988        -0.291611
 H        -0.727518         0.517258         0.801206
 H        -0.349788         0.837631        -0.835779
 H         1.791504         1.185513         2.166881
 H         1.314157        -0.415087         2.224627
 H         4.056224        -0.735813         2.068069
 H         2.831858         2.736032         0.642258
 H         4.192480         2.319621        -0.520092
 H         2.331206         0.750421        -1.700097
 H         4.119099        -0.967189        -0.659623
