19
Iteration:  2063
 C        -0.017523         0.307887        -0.089139
 C         1.433991        -0.023175         0.196583
 C         1.955385        -0.077426         1.708825
 C         3.514219        -0.181192         1.276474
 O         4.095554         1.283304         1.178487
 C         3.258679         1.947423         0.090412
 C         2.593461         0.807203        -0.591308
 C         3.236312        -0.580580        -0.225813
 O         1.959075        -1.273475        -0.340948
 H        -0.436984         0.711920         0.708294
 H        -0.175767         0.974831        -0.936062
 H        -0.549239        -0.654626        -0.293474
 H         1.842012         0.868922         2.280338
 H         1.493261        -0.814434         2.208171
 H         4.155652        -0.649361         2.131328
 H         2.470828         2.605243         0.523011
 H         3.881351         2.690129        -0.435026
 H         2.428071         0.978205        -1.608886
 H         4.031553        -1.210106        -0.766114
