19
Iteration:  4842
 C         0.005754         0.495636         0.021953
 C         1.475525        -0.012722         0.211704
 C         1.988614         0.101701         1.682047
 C         3.492224        -0.002155         1.313329
 O         3.935220         1.335984         1.120472
 C         3.245264         1.794823        -0.259631
 C         2.622410         0.575571        -0.701357
 C         3.302726        -0.736654        -0.141355
 O         2.004801        -1.364650        -0.056412
 H        -0.011046         1.007873        -0.924338
 H        -0.864335        -0.322104         0.035151
 H        -0.294174         1.263012         0.835410
 H         1.779969         1.099522         2.073926
 H         1.406602        -0.601808         2.320866
 H         4.037393        -0.328440         2.076577
 H         2.425479         2.531672        -0.066201
 H         4.040205         2.307275        -0.833721
 H         2.537074         0.187076        -1.701526
 H         4.020108        -1.223680        -0.748145
