19
Iteration:  4648
 C        -0.057271         0.246991        -0.013617
 C         1.460082         0.023006         0.173107
 C         1.948673         0.163312         1.634534
 C         3.456055         0.013912         1.302758
 O         4.115537         1.208532         1.051663
 C         3.282024         1.885641        -0.015487
 C         2.670619         0.694413        -0.666185
 C         3.213662        -0.623114        -0.090719
 O         1.953963        -1.349802        -0.195667
 H        -0.578492        -0.511248         0.446694
 H        -0.346346         1.148403         0.599284
 H        -0.418630         0.352048        -0.989385
 H         1.622016         1.077427         2.110082
 H         1.597738        -0.687969         2.283390
 H         4.024493        -0.477408         2.050928
 H         2.548642         2.583245         0.444529
 H         4.022683         2.359930        -0.693544
 H         2.460211         0.815834        -1.718293
 H         3.980459        -1.192193        -0.518863
