19
Iteration:  3294
 C        -0.031123         0.106844        -0.116931
 C         1.434092         0.111608         0.247302
 C         1.865091         0.042474         1.708982
 C         3.354704        -0.003013         1.264667
 O         4.185310         1.237991         1.124450
 C         3.435804         1.802999         0.028206
 C         2.606859         0.771995        -0.567548
 C         3.192715        -0.559814        -0.228582
 O         1.946259        -1.199402        -0.234587
 H        -0.300676        -0.978257        -0.455053
 H        -0.837534         0.347529         0.682067
 H        -0.416366         0.700765        -0.949530
 H         1.619393         0.940296         2.332236
 H         1.770157        -0.772000         2.393353
 H         4.012144        -0.624225         1.937014
 H         2.906964         2.625290         0.562052
 H         4.196176         2.185014        -0.752451
 H         2.336539         0.863163        -1.727435
 H         4.019456        -1.112700        -0.684485
