19
Iteration:  2120charge 0 multiplicity 1
 C         0.053584         0.349290        -0.007385
 C         1.453013        -0.009945         0.185051
 C         1.973276        -0.084407         1.608679
 C         3.481972        -0.055477         1.246607
 O         4.006209         1.252818         1.188840
 C         3.258516         1.931689         0.157157
 C         2.577691         0.729705        -0.589968
 C         3.274610        -0.570829        -0.199151
 O         1.949741        -1.284809        -0.381486
 H        -0.116251         1.374309         0.232294
 H        -0.285778         0.169875        -1.076416
 H        -0.579499        -0.210733         0.608516
 H         1.718731         0.666138         2.286499
 H         1.705796        -1.061792         1.986926
 H         3.994844        -0.619758         2.042226
 H         2.481027         2.648586         0.542459
 H         4.022259         2.357127        -0.431274
 H         2.484882         0.883016        -1.682404
 H         4.111644        -1.113310        -0.634640
