19
Iteration:  1616
 C        -0.033625         0.407755         0.003340
 C         1.446760        -0.031445         0.181115
 C         2.002037        -0.054859         1.649442
 C         3.512126        -0.063288         1.288354
 O         3.916716         1.313231         1.261750
 C         3.349761         1.826224         0.119286
 C         2.521918         0.751265        -0.627449
 C         3.271953        -0.600512        -0.283763
 O         2.039575        -1.308342        -0.362274
 H        -0.449831         0.879638         0.851715
 H        -0.082154         1.010004        -0.868295
 H        -0.597362        -0.621012        -0.131740
 H         1.678848         0.982664         2.054895
 H         1.584957        -0.862628         2.118091
 H         4.261943        -0.656051         1.790821
 H         2.652233         2.602969         0.390852
 H         4.245223         2.147371        -0.557270
 H         2.199890         0.796917        -1.625425
 H         4.059145        -1.117798        -0.769686
