19
Iteration:  1005charge 0 multiplicity 1
 C        -0.162740         0.087368        -0.020106
 C         1.363259         0.131140         0.185020
 C         1.955318         0.030591         1.527052
 C         3.467927        -0.151530         1.280085
 O         4.086901         1.139852         1.263455
 C         3.435858         1.887797         0.187406
 C         2.572828         0.855061        -0.523802
 C         3.269465        -0.509665        -0.265758
 O         2.022888        -1.188309        -0.421627
 H        -0.459414         0.591459        -0.956729
 H        -0.477389        -0.943317        -0.029491
 H        -0.815311         0.499769         0.804706
 H         1.708303         0.978404         2.088219
 H         1.488568        -0.814068         2.062861
 H         4.112705        -0.772026         1.868031
 H         2.855848         2.715758         0.655652
 H         4.215189         2.459518        -0.396208
 H         2.392886         1.053329        -1.634278
 H         4.108971        -0.899379        -0.765298
