19
Iteration:  3897
 C        -0.038771         0.269567        -0.033578
 C         1.456262         0.066154         0.147826
 C         2.042956         0.002219         1.690427
 C         3.491146        -0.175796         1.264103
 O         4.004188         1.226884         1.162985
 C         3.243863         1.934041         0.144475
 C         2.620745         0.785706        -0.576754
 C         3.279194        -0.584391        -0.245170
 O         1.967252        -1.271314        -0.335196
 H        -0.413186         0.874619         0.802995
 H        -0.254007         0.769995        -1.072433
 H        -0.596913        -0.717633        -0.050004
 H         1.887549         0.884768         2.226261
 H         1.414507        -0.807456         2.112459
 H         4.092031        -0.785023         1.848858
 H         2.528824         2.626438         0.644368
 H         3.960793         2.472708        -0.469269
 H         2.320940         0.912551        -1.620359
 H         4.080378        -1.029121        -0.757948
