19
Iteration:  3538charge 0 multiplicity 1
 C        -0.068635         0.368398         0.051477
 C         1.456250         0.055167         0.104522
 C         1.974591        -0.121312         1.577739
 C         3.414545        -0.167641         1.328591
 O         4.017427         1.221820         1.193547
 C         3.258150         1.888818         0.075846
 C         2.606673         0.814198        -0.565736
 C         3.328780        -0.577876        -0.169585
 O         2.051884        -1.236031        -0.363266
 H        -0.285456         1.296341        -0.455134
 H        -0.688795        -0.301440        -0.545015
 H        -0.584376         0.275237         1.026038
 H         1.754854         0.632963         2.243278
 H         1.540546        -1.093365         1.814799
 H         4.106196        -0.567942         2.150890
 H         2.510440         2.595388         0.454839
 H         3.897372         2.479651        -0.637904
 H         2.519483         0.677791        -1.645369
 H         4.187092        -0.822622        -0.918384
