19
Iteration:  1358
 C        -0.103116         0.012749        -0.112784
 C         1.391342         0.061503         0.251124
 C         1.902149         0.172903         1.666459
 C         3.435213        -0.116181         1.239225
 O         4.244030         1.153282         1.112656
 C         3.400252         1.876494         0.216425
 C         2.576865         0.839360        -0.567558
 C         3.155819        -0.503495        -0.244227
 O         1.979878        -1.231174        -0.315870
 H        -0.794017         0.464430         0.599051
 H        -0.180671         0.673639        -1.094621
 H        -0.507958        -0.956797        -0.220462
 H         1.871439         1.142894         2.035806
 H         1.431438        -0.552067         2.329711
 H         3.909744        -0.922849         1.863920
 H         2.763327         2.562692         0.729752
 H         4.064882         2.550484        -0.436181
 H         2.391396         1.029802        -1.582212
 H         4.077998        -0.805372        -0.750892
