19
Iteration:   565charge 0 multiplicity 1
 C        -0.091296         0.127464         0.003921
 C         1.439185         0.066968         0.178272
 C         1.984046        -0.239264         1.581542
 C         3.460721        -0.267400         1.182660
 O         4.031099         1.064250         1.359917
 C         3.313599         1.912797         0.486029
 C         2.603006         1.013203        -0.511590
 C         3.295334        -0.310868        -0.388083
 O         2.001903        -1.054228        -0.664230
 H        -0.471684         1.127305        -0.305255
 H        -0.496064        -0.659211        -0.698267
 H        -0.609225        -0.175269         0.965735
 H         1.740357         0.325917         2.538934
 H         1.625979        -1.280833         1.633668
 H         4.233980        -0.937591         1.509497
 H         2.623037         2.560488         1.045627
 H         4.047518         2.565449        -0.117938
 H         2.283254         1.480284        -1.523105
 H         4.148557        -0.733379        -0.972258
