19
Iteration:  3013charge 0 multiplicity 1
 C        -0.077257         0.113575         0.020239
 C         1.406275        -0.043636         0.119525
 C         1.959913         0.133736         1.547798
 C         3.423553        -0.120792         1.303352
 O         4.078201         1.206891         1.265584
 C         3.401065         1.847156         0.175945
 C         2.594076         0.828527        -0.646174
 C         3.201557        -0.484623        -0.293660
 O         2.042285        -1.201769        -0.314017
 H        -0.272789         1.024754        -0.595111
 H        -0.359850        -0.757632        -0.444716
 H        -0.530993         0.138770         0.978949
 H         1.614003         0.997308         2.052938
 H         1.507213        -0.756548         2.074463
 H         4.003872        -0.776422         1.929594
 H         2.627814         2.409736         0.731204
 H         4.140875         2.411882        -0.338887
 H         2.315170         0.999006        -1.767105
 H         3.828651        -0.994833        -0.963301
