19
Iteration:  4183charge 0 multiplicity 1
 C        -0.017762         0.373565         0.057857
 C         1.433234        -0.020413         0.150972
 C         2.014293        -0.003523         1.611288
 C         3.504336        -0.213479         1.310881
 O         4.009813         1.314743         1.210624
 C         3.221533         1.866750         0.084210
 C         2.504698         0.744945        -0.621613
 C         3.308701        -0.531589        -0.282275
 O         2.044702        -1.342303        -0.301026
 H        -0.616126         0.599187         0.966500
 H         0.083682         1.267793        -0.632527
 H        -0.721655        -0.119641        -0.587457
 H         1.881639         0.852676         2.265463
 H         1.464096        -0.962418         1.906406
 H         4.200343        -0.793125         1.987116
 H         2.662654         2.717460         0.515682
 H         3.982861         2.345003        -0.544425
 H         2.138888         0.973746        -1.689418
 H         4.131599        -0.978490        -0.867615
