19
Iteration:  4262
 C        -0.067736         0.162742        -0.168697
 C         1.381529        -0.024569         0.282835
 C         1.980968         0.122567         1.773633
 C         3.440877        -0.100964         1.183077
 O         4.179938         1.171715         1.142113
 C         3.346733         1.871371         0.085256
 C         2.433070         0.820239        -0.585526
 C         3.215538        -0.481445        -0.319440
 O         2.022434        -1.268119        -0.182237
 H        -0.360616        -0.956599        -0.231110
 H        -0.683833         0.712471         0.509302
 H         0.031086         0.630547        -1.197767
 H         1.931752         1.136204         2.228004
 H         1.691551        -0.545278         2.519842
 H         3.950318        -0.770740         1.849991
 H         2.944683         2.710538         0.638789
 H         4.139446         2.203672        -0.595522
 H         2.131164         1.013499        -1.538973
 H         3.922092        -0.970677        -0.943764
