19
Iteration:  2013charge 0 multiplicity 1
 C        -0.115182        -0.045874        -0.002311
 C         1.425137         0.050011         0.182456
 C         1.898424         0.136681         1.630620
 C         3.391720        -0.114776         1.221028
 O         4.083974         1.139577         1.203128
 C         3.513292         1.888467         0.195396
 C         2.563876         0.857737        -0.534393
 C         3.244112        -0.449430        -0.305530
 O         1.990172        -1.194736        -0.352449
 H        -0.757170         0.715631         0.700736
 H        -0.362649         0.267739        -1.094924
 H        -0.399512        -1.066417         0.110842
 H         1.710629         1.188373         1.866957
 H         1.366975        -0.512182         2.543008
 H         3.865535        -0.941506         1.681525
 H         3.208551         2.913555         0.518174
 H         4.335869         2.170202        -0.554848
 H         2.424395         1.221406        -1.586098
 H         4.071590        -0.886300        -0.835350
