19
Iteration:   643
 C        -0.015287         0.329968        -0.061652
 C         1.405672         0.074954         0.197898
 C         2.067770        -0.328995         1.605216
 C         3.474341        -0.206136         1.145584
 O         4.048074         1.156747         1.325425
 C         3.166394         1.932322         0.460972
 C         2.564219         0.920618        -0.452404
 C         3.281006        -0.462782        -0.403886
 O         2.021673        -1.162538        -0.582853
 H        -0.669726         0.028428         0.682985
 H        -0.204797         1.348610        -0.284480
 H        -0.460796        -0.271068        -0.921902
 H         1.824446         0.289942         2.511195
 H         1.891151        -1.321588         1.853135
 H         4.258388        -0.819293         1.565812
 H         2.397632         2.426021         1.081096
 H         3.700765         2.711380        -0.113276
 H         2.436324         1.323091        -1.429296
 H         4.089711        -0.679545        -1.124030
