19
Iteration:  3410charge 0 multiplicity 1
 C        -0.024409         0.267215        -0.027536
 C         1.400402         0.015212         0.176433
 C         2.000757         0.006473         1.595078
 C         3.432665        -0.116624         1.227602
 O         3.950559         1.223805         1.196427
 C         3.403808         1.849034         0.102775
 C         2.544249         0.791732        -0.609638
 C         3.332939        -0.534339        -0.211972
 O         1.996982        -1.280851        -0.228104
 H        -0.682574         0.254814         0.855813
 H         0.068075         1.299179        -0.542847
 H        -0.563919        -0.339863        -0.837922
 H         1.717818         1.033557         2.177581
 H         1.482360        -0.746728         2.209795
 H         4.183054        -0.778529         1.749443
 H         2.744278         2.709863         0.427046
 H         4.141576         2.208140        -0.634559
 H         2.192765         1.082018        -1.629166
 H         4.176215        -1.096329        -0.689585
