19
Iteration:   700charge 0 multiplicity 1
 C        -0.133837         0.011792        -0.099050
 C         1.379054         0.048680         0.166466
 C         1.946262        -0.107647         1.615345
 C         3.478231        -0.192057         1.219010
 O         4.141417         1.043267         1.339489
 C         3.383440         1.923477         0.403406
 C         2.510092         1.055430        -0.521974
 C         3.283108        -0.374573        -0.372118
 O         1.977451        -1.113711        -0.565232
 H        -0.416368        -0.985461        -0.479291
 H        -0.602387         0.033931         0.892418
 H        -0.280281         0.979062        -0.778696
 H         1.785061         0.737077         2.240412
 H         1.601568        -0.984278         2.084353
 H         4.169115        -1.006397         1.693006
 H         2.885106         2.570097         1.178616
 H         4.130002         2.596966        -0.000583
 H         2.223399         1.397097        -1.530554
 H         4.153146        -0.528852        -1.020418
