19
Iteration:  1895charge 0 multiplicity 1
 C        -0.020984         0.244388        -0.022119
 C         1.453055         0.088426         0.172219
 C         1.950319        -0.140988         1.671017
 C         3.427212        -0.084236         1.264286
 O         3.997264         1.203725         1.157339
 C         3.314785         1.887012         0.119818
 C         2.633997         0.777924        -0.610613
 C         3.298097        -0.507979        -0.248178
 O         1.998556        -1.214003        -0.317702
 H        -0.155975         1.242254         0.542268
 H        -0.489115         0.337300        -0.967553
 H        -0.668086        -0.371123         0.641021
 H         1.759396         0.603206         2.398965
 H         1.531852        -1.110288         2.071982
 H         4.056666        -0.631670         1.901030
 H         2.391602         2.480003         0.446049
 H         4.118337         2.458879        -0.571753
 H         2.368393         0.896239        -1.745929
 H         4.184554        -0.852366        -0.704200
