19
Iteration:  2577
 C         0.044223         0.382716         0.101232
 C         1.467550        -0.000064         0.124946
 C         1.947333        -0.066833         1.637662
 C         3.497050        -0.162253         1.371459
 O         3.936956         1.312982         1.193472
 C         3.243053         1.901534         0.042667
 C         2.563870         0.726354        -0.668954
 C         3.296664        -0.568811        -0.232165
 O         2.038577        -1.301878        -0.349665
 H        -0.070829         1.521623         0.015758
 H        -0.467721         0.193765        -0.891383
 H        -0.473160         0.013831         0.951175
 H         1.570561         0.713240         2.352749
 H         1.516628        -1.087214         1.995118
 H         4.233847        -0.697712         2.019352
 H         2.577073         2.683061         0.321043
 H         4.158632         2.265303        -0.492966
 H         2.305464         0.768145        -1.805956
 H         4.030257        -1.042498        -0.881635
