19
Iteration:   953
 C        -0.003907         0.444368        -0.146796
 C         1.456436         0.037690         0.155956
 C         2.066135        -0.200615         1.652509
 C         3.516939        -0.188227         1.255154
 O         4.024728         1.253973         1.208056
 C         3.110380         1.966033         0.275314
 C         2.551918         0.756997        -0.538671
 C         3.308957        -0.562002        -0.251133
 O         1.970104        -1.268616        -0.370550
 H        -0.247184        -0.074832        -1.086292
 H        -0.650949         0.283839         0.729229
 H        -0.097913         1.438187        -0.367725
 H         1.942479         0.467648         2.519333
 H         1.708932        -1.300010         1.976696
 H         4.269592        -0.699333         1.713411
 H         2.434586         2.635627         0.858849
 H         3.761061         2.492279        -0.417529
 H         2.516949         0.978446        -1.623202
 H         4.067068        -0.977363        -0.923201
