19
Iteration:  4923charge 0 multiplicity 1
 C        -0.055157        -0.034885        -0.117846
 C         1.406699         0.123692         0.257698
 C         1.947070         0.347668         1.640688
 C         3.438554        -0.092438         1.281650
 O         4.262252         1.205962         0.982309
 C         3.429980         1.867185        -0.040844
 C         2.528357         0.759465        -0.574199
 C         3.182718        -0.589691        -0.188814
 O         1.881602        -1.272366        -0.016918
 H        -0.342814        -0.612892        -1.072951
 H        -0.656952        -0.478786         0.666007
 H        -0.491012         0.959483        -0.171034
 H         1.718904         1.413222         1.903345
 H         1.345070        -0.375487         2.243635
 H         4.037801        -0.762703         2.081782
 H         2.823956         2.725422         0.298260
 H         4.162694         2.160183        -0.769017
 H         2.165609         0.712254        -1.596520
 H         4.108699        -1.184996        -0.517974
