19
Iteration:  3676
 C        -0.005138         0.239427        -0.001237
 C         1.466619         0.068773         0.155890
 C         1.994245        -0.101000         1.553653
 C         3.475773        -0.128409         1.236167
 O         4.005354         1.156642         1.255441
 C         3.256565         1.944483         0.209578
 C         2.619605         0.798504        -0.563003
 C         3.242061        -0.517054        -0.241280
 O         1.978415        -1.197809        -0.387495
 H        -0.530312        -0.405979        -0.801903
 H        -0.472231         0.020688         0.990521
 H        -0.229690         1.342616        -0.237923
 H         1.710031         0.759161         2.203408
 H         1.624999        -1.190856         1.708592
 H         4.171379        -0.674568         1.956654
 H         2.639327         2.782020         0.597670
 H         4.039429         2.474283        -0.339574
 H         2.413544         0.894721        -1.613244
 H         4.002870        -0.938110        -0.941467
