19
Iteration:  2983
 C        -0.153970         0.104631        -0.055588
 C         1.384816         0.095298         0.185013
 C         1.994799         0.048581         1.637717
 C         3.430859        -0.166827         1.351300
 O         4.098656         1.173323         1.147812
 C         3.434037         1.934259         0.098050
 C         2.571163         0.884101        -0.575632
 C         3.229217        -0.530848        -0.157411
 O         2.036212        -1.226667        -0.397775
 H        -0.652704         0.951983        -0.679588
 H        -0.200737        -0.819914        -0.670547
 H        -0.750347        -0.167896         0.876852
 H         1.767479         0.876519         2.255424
 H         1.465478        -0.796822         2.164646
 H         4.077962        -0.803464         2.045823
 H         2.770046         2.743423         0.616174
 H         4.090094         2.603244        -0.467494
 H         2.222133         0.924843        -1.615897
 H         4.073893        -1.022900        -0.723986
