19
Iteration:  4873charge 0 multiplicity 1
 C         0.012750         0.380934         0.047614
 C         1.488498         0.050782         0.220747
 C         1.925122         0.069981         1.627912
 C         3.459414         0.054235         1.314629
 O         3.994291         1.347161         1.033689
 C         3.340431         1.806054        -0.223337
 C         2.595333         0.652297        -0.646076
 C         3.271108        -0.762288        -0.045588
 O         1.948482        -1.354275        -0.098664
 H        -0.175931         0.691189        -0.940254
 H        -0.575529        -0.557137         0.039919
 H        -0.535400         1.066367         0.785768
 H         1.725177         1.031949         2.148652
 H         1.595864        -0.785825         2.143359
 H         4.085396        -0.190707         2.116313
 H         2.770791         2.741443        -0.009861
 H         4.143096         2.133074        -0.956592
 H         2.467294         0.314414        -1.675227
 H         4.007816        -1.292998        -0.552207
