19
Iteration:  2499
 C        -0.132346         0.054845        -0.160846
 C         1.381955         0.099346         0.175392
 C         1.940436         0.079897         1.708033
 C         3.503246        -0.093383         1.254206
 O         4.225818         1.082847         1.088778
 C         3.351905         1.962889         0.176499
 C         2.526654         0.912735        -0.609734
 C         3.256584        -0.524781        -0.222134
 O         1.926010        -1.258754        -0.182821
 H        -0.668185         0.745810         0.458482
 H        -0.254871         0.271182        -1.275149
 H        -0.443395        -0.982057        -0.084930
 H         1.704088         1.165388         1.977706
 H         1.560676        -0.742791         2.320884
 H         4.115118        -0.768198         1.862697
 H         2.884401         2.657635         0.792322
 H         4.021897         2.529191        -0.451892
 H         2.368473         1.145625        -1.635303
 H         4.050486        -1.045251        -0.707574
