19
Iteration:  3881charge 0 multiplicity 1
 C         0.041641         0.400899         0.003864
 C         1.444920        -0.041578         0.213252
 C         1.930719         0.017019         1.534100
 C         3.486362        -0.061885         1.204700
 O         4.047061         1.204496         1.235368
 C         3.186864         1.825157         0.202086
 C         2.522677         0.692341        -0.641444
 C         3.304098        -0.556138        -0.259068
 O         2.049495        -1.274735        -0.337639
 H        -0.290362         1.224160         0.691215
 H        -0.320528         0.642172        -0.943359
 H        -0.715445        -0.365019         0.272120
 H         1.718128         0.962142         2.191046
 H         1.821275        -0.686986         2.321001
 H         4.222402        -0.686189         1.896022
 H         2.382047         2.411956         0.670466
 H         3.809224         2.605422        -0.287550
 H         2.434415         0.815190        -1.726576
 H         4.096178        -1.052925        -0.934795
