19
Iteration:  4701charge 0 multiplicity 1
 C         0.022740         0.413387        -0.119526
 C         1.480342         0.022818         0.275297
 C         2.040701         0.005597         1.769975
 C         3.480229        -0.025568         1.290064
 O         4.008196         1.340713         1.013049
 C         3.253832         1.886258        -0.084068
 C         2.572976         0.595416        -0.615602
 C         3.235943        -0.681786        -0.129994
 O         1.963162        -1.325129        -0.131466
 H        -0.524357        -0.420945        -0.448396
 H        -0.585761         0.906279         0.701890
 H        -0.028182         1.110297        -0.980522
 H         1.710259         0.772437         2.500464
 H         1.622344        -0.991692         2.135808
 H         4.070155        -0.370775         2.015089
 H         2.482283         2.709714         0.021861
 H         4.086875         2.128825        -0.694764
 H         2.351095         0.576587        -1.673491
 H         3.940349        -1.201796        -0.705144
