19
Iteration:  2970
 C        -0.069382         0.079554        -0.116616
 C         1.389746         0.030644         0.230720
 C         1.912702         0.003191         1.703047
 C         3.470336        -0.050788         1.270419
 O         4.138734         1.184257         1.166610
 C         3.363862         1.877628         0.145369
 C         2.556443         0.799256        -0.581789
 C         3.242697        -0.485444        -0.256854
 O         1.969005        -1.165245        -0.321728
 H        -0.196116         1.169812        -0.500092
 H        -0.383598        -0.606706        -0.855284
 H        -0.717135         0.031542         0.762602
 H         1.669229         0.845746         2.284967
 H         1.658849        -0.972365         2.189468
 H         4.068177        -0.663439         1.937293
 H         2.751492         2.705806         0.625767
 H         4.127126         2.144674        -0.553934
 H         2.547942         0.955930        -1.727223
 H         4.060084        -0.898331        -0.805293
