19
Iteration:  2075charge 0 multiplicity 1
 C         0.071317         0.394332        -0.083299
 C         1.470048         0.008546         0.208933
 C         2.015788        -0.029473         1.640727
 C         3.487797        -0.109190         1.266647
 O         3.988468         1.225844         1.183178
 C         3.199088         1.913614         0.142388
 C         2.513877         0.728802        -0.584989
 C         3.285005        -0.588931        -0.233751
 O         1.996457        -1.301715        -0.297601
 H        -0.318424         0.954990         0.694825
 H         0.064561         1.042706        -1.010790
 H        -0.583302        -0.451756        -0.271879
 H         1.700558         0.850631         2.181227
 H         1.729533        -0.875670         2.120749
 H         4.214245        -0.874955         1.705469
 H         2.467838         2.533197         0.709952
 H         3.837725         2.476016        -0.508212
 H         2.171185         0.775553        -1.580934
 H         4.148223        -0.970475        -0.879600
