19
Iteration:   395charge 0 multiplicity 1
 C        -0.062685         0.172352        -0.095238
 C         1.400288        -0.008859         0.145056
 C         2.087790        -0.346221         1.574425
 C         3.536757        -0.326721         1.138380
 O         4.105618         1.015981         1.360306
 C         3.226207         1.915746         0.684519
 C         2.456835         1.090713        -0.438429
 C         3.243736        -0.254406        -0.452547
 O         2.025753        -0.948284        -0.691709
 H        -0.598081         0.506441         0.753569
 H        -0.281647         0.799756        -0.965703
 H        -0.561119        -0.874244        -0.327478
 H         1.719246         0.344002         2.362432
 H         1.777239        -1.459598         1.908810
 H         4.068784        -1.227848         1.391858
 H         2.676724         2.517881         1.440182
 H         3.933029         2.594291         0.112296
 H         2.180640         1.515055        -1.304462
 H         4.027721        -0.639568        -1.143881
