19
Iteration:   787charge 0 multiplicity 1
 C         0.032383         0.440038        -0.044672
 C         1.489929         0.036330         0.123679
 C         2.012578        -0.274857         1.656548
 C         3.512232        -0.198761         1.252178
 O         3.986690         1.192791         1.239813
 C         3.077673         1.928230         0.408311
 C         2.594636         0.847830        -0.592011
 C         3.275119        -0.518866        -0.336370
 O         2.074793        -1.209097        -0.512742
 H        -0.259547         1.436342        -0.424373
 H        -0.576641        -0.221761        -0.633450
 H        -0.538404         0.524832         0.962588
 H         1.789196         0.499175         2.511879
 H         1.763874        -1.276032         2.019314
 H         4.227780        -1.023607         1.668440
 H         2.296400         2.333159         1.009585
 H         3.678430         2.649915        -0.160509
 H         2.252405         1.012340        -1.663924
 H         4.159795        -0.731419        -0.935466
