19
Iteration:  1377charge 0 multiplicity 1
 C        -0.127334         0.179983        -0.162321
 C         1.397084         0.002569         0.151508
 C         1.989701         0.117130         1.579922
 C         3.528029        -0.123488         1.228450
 O         4.146141         1.133042         1.165533
 C         3.333097         1.901914         0.220241
 C         2.476427         0.826109        -0.553604
 C         3.293465        -0.510217        -0.230634
 O         1.976532        -1.260881        -0.220980
 H        -0.633862         0.574198         0.722028
 H        -0.530756         0.696980        -1.007753
 H        -0.549327        -0.784873        -0.345680
 H         1.879603         1.175712         2.181496
 H         1.804165        -0.610600         2.377785
 H         4.077389        -0.731087         2.024285
 H         2.892975         2.795528         0.776087
 H         3.866581         2.424783        -0.540144
 H         2.254702         0.986491        -1.600842
 H         4.000797        -1.151210        -0.895787
