19
Iteration:  2701
 C        -0.138957         0.157574        -0.047899
 C         1.392378         0.057113         0.160273
 C         1.989303         0.061657         1.659798
 C         3.419443        -0.163726         1.244009
 O         4.060454         1.213454         1.215338
 C         3.387231         1.860388         0.088536
 C         2.651854         0.816651        -0.655886
 C         3.247317        -0.506772        -0.246159
 O         2.010411        -1.232512        -0.263157
 H        -0.615156         0.780819         0.719267
 H        -0.596632         0.319822        -1.008608
 H        -0.463784        -0.907282         0.288130
 H         1.841001         1.042952         2.089472
 H         1.621943        -0.607639         2.482904
 H         4.003986        -0.875427         1.812171
 H         2.705806         2.693652         0.440673
 H         4.127029         2.370680        -0.575567
 H         2.393009         1.057695        -1.634237
 H         4.175077        -0.902002        -0.675744
