19
Iteration:  1632
 C        -0.040386         0.257284        -0.095682
 C         1.427881         0.033391         0.202611
 C         1.991964        -0.024446         1.637091
 C         3.481817        -0.101286         1.303544
 O         4.083271         1.207527         1.238046
 C         3.288413         1.947402         0.067256
 C         2.579437         0.736834        -0.621212
 C         3.268451        -0.504543        -0.245390
 O         1.937769        -1.299917        -0.285758
 H        -0.424257         0.876182         0.800835
 H        -0.218979         0.855543        -1.086826
 H        -0.594109        -0.624402        -0.221506
 H         1.836617         0.711060         2.356818
 H         1.631002        -1.012697         2.162882
 H         4.075291        -0.685620         2.040383
 H         2.600334         2.675163         0.566085
 H         3.947227         2.449063        -0.576577
 H         2.433239         1.011020        -1.731501
 H         4.112826        -0.853854        -0.916550
