19
Iteration:  2569charge 0 multiplicity 1
 C        -0.000001         0.399299         0.064251
 C         1.489510        -0.045675         0.164014
 C         1.912415        -0.051523         1.611827
 C         3.483743         0.004714         1.276904
 O         3.955568         1.251286         1.230237
 C         3.263956         1.836360         0.066334
 C         2.573812         0.739036        -0.644854
 C         3.314188        -0.579521        -0.300285
 O         2.036211        -1.297144        -0.303746
 H        -0.087022         1.544221         0.273849
 H        -0.377213        -0.044043        -0.813990
 H        -0.513080        -0.211263         0.837519
 H         1.742355         0.753629         2.237215
 H         1.465672        -1.047259         1.980034
 H         4.036433        -0.679129         1.914050
 H         2.668230         2.663109         0.416044
 H         4.105832         2.311002        -0.530872
 H         2.185525         1.051659        -1.665507
 H         4.159744        -1.179244        -0.725313
