19
Iteration:  1606
 C         0.001152         0.386683         0.046088
 C         1.458671        -0.009261         0.209952
 C         1.983593        -0.063194         1.617551
 C         3.443296        -0.097197         1.206123
 O         3.845118         1.290740         1.274538
 C         3.309177         1.855552         0.035050
 C         2.605201         0.702593        -0.565143
 C         3.310464        -0.611035        -0.251898
 O         2.057642        -1.278339        -0.370646
 H        -0.206401         0.929049         0.934710
 H        -0.136427         1.085143        -0.804974
 H        -0.823230        -0.445903        -0.169462
 H         1.889259         0.843395         2.298625
 H         1.586351        -0.811517         2.195415
 H         4.141177        -0.602071         1.858963
 H         2.857509         2.806986         0.220102
 H         4.055733         2.116807        -0.745655
 H         2.432785         1.041154        -1.487389
 H         4.121775        -1.074158        -0.728007
