19
Iteration:  4776charge 0 multiplicity 1
 C        -0.099315        -0.041229        -0.083665
 C         1.347880         0.110741         0.177012
 C         1.984713         0.343095         1.664657
 C         3.435124         0.026919         1.334618
 O         4.233879         1.135424         1.013510
 C         3.452721         1.875122        -0.031232
 C         2.540740         0.720292        -0.626504
 C         3.164791        -0.612869        -0.146664
 O         1.909191        -1.269397        -0.097710
 H        -0.363626        -0.707878        -0.888378
 H        -0.631545        -0.325641         0.904342
 H        -0.557925         1.009762        -0.273894
 H         1.752883         1.342856         2.093091
 H         1.622019        -0.421375         2.348653
 H         3.913482        -0.591310         1.967840
 H         3.013615         2.741093         0.465562
 H         4.105015         2.331909        -0.799535
 H         2.715445         0.882608        -1.676859
 H         3.929544        -1.123203        -0.644278
