19
Iteration:  2077charge 0 multiplicity 1
 C         0.076264         0.398203        -0.085032
 C         1.462158         0.012484         0.218210
 C         2.027635        -0.017418         1.623267
 C         3.479210        -0.093627         1.256012
 O         3.974311         1.211179         1.180155
 C         3.184351         1.892463         0.162705
 C         2.525959         0.716833        -0.587571
 C         3.295440        -0.581037        -0.240510
 O         2.004913        -1.303799        -0.289498
 H        -0.331233         1.072838         0.775578
 H         0.094501         1.057317        -1.045695
 H        -0.566970        -0.428846        -0.275390
 H         1.737363         0.821373         2.190978
 H         1.718628        -0.952452         2.137965
 H         4.205290        -0.777241         1.667585
 H         2.480450         2.590103         0.712372
 H         3.824586         2.390150        -0.500790
 H         2.124595         0.750504        -1.615288
 H         4.138948        -0.919209        -0.853045
