19
Iteration:   424
 C        -0.023489         0.323041         0.087692
 C         1.440040         0.065304         0.216926
 C         1.999162        -0.530602         1.503931
 C         3.526996        -0.276683         1.105580
 O         3.917890         1.094245         1.468191
 C         3.248213         1.958509         0.528751
 C         2.540783         0.997003        -0.509648
 C         3.338243        -0.295670        -0.482321
 O         2.072249        -1.042621        -0.720465
 H        -0.550151         0.068190         1.001029
 H        -0.361504         1.338750        -0.148180
 H        -0.392593        -0.329467        -0.679786
 H         1.746892         0.013468         2.428701
 H         1.655718        -1.513133         1.573321
 H         4.190620        -1.093859         1.483458
 H         2.503794         2.559337         1.127796
 H         3.970691         2.557842         0.056062
 H         2.064718         1.384174        -1.492191
 H         4.199125        -0.633708        -1.124390
