19
Iteration:  1782
 C         0.021373         0.416398        -0.041136
 C         1.481904        -0.027858         0.192112
 C         1.996033        -0.044397         1.642923
 C         3.462715        -0.226640         1.251433
 O         3.989643         1.260325         1.166815
 C         3.155435         1.890793         0.165683
 C         2.575495         0.761429        -0.592657
 C         3.260492        -0.531547        -0.281824
 O         2.045828        -1.305174        -0.298828
 H        -0.130392         1.421921         0.349961
 H        -0.237553         0.392933        -1.158118
 H        -0.550254        -0.203345         0.583147
 H         1.895782         0.866734         2.283485
 H         1.651044        -1.018868         2.110595
 H         4.096572        -0.783863         1.991751
 H         2.417271         2.675205         0.545491
 H         4.001863         2.506669        -0.458486
 H         2.433082         0.888879        -1.597446
 H         4.118544        -0.830873        -0.970575
