19
Iteration:  1007charge 0 multiplicity 1
 C        -0.157758         0.076185        -0.002159
 C         1.340688         0.130045         0.187712
 C         1.955844         0.035514         1.535314
 C         3.447308        -0.132837         1.290256
 O         4.102247         1.149849         1.264372
 C         3.449922         1.875270         0.199693
 C         2.596433         0.850014        -0.546819
 C         3.281660        -0.505956        -0.274409
 O         2.004821        -1.180125        -0.423638
 H        -0.503280         0.546360        -0.939649
 H        -0.456884        -0.998348        -0.163217
 H        -0.759248         0.465249         0.742102
 H         1.674647         0.966005         2.072090
 H         1.421315        -0.904541         2.096950
 H         4.107974        -0.740476         1.771293
 H         2.884155         2.719165         0.682450
 H         4.195856         2.445449        -0.400781
 H         2.326490         1.086584        -1.608867
 H         4.137382        -0.974506        -0.772167
