19
Iteration:   991
 C        -0.084551         0.203123        -0.048833
 C         1.416132         0.014833         0.117340
 C         1.967837        -0.015608         1.671116
 C         3.458075        -0.188370         1.208241
 O         4.041727         1.130418         1.243123
 C         3.311089         1.927360         0.212126
 C         2.558239         0.889532        -0.565800
 C         3.281896        -0.461375        -0.224773
 O         2.040286        -1.225826        -0.390299
 H        -0.446760         0.434705        -1.071426
 H        -0.525623        -0.805131         0.013861
 H        -0.330915         1.100291         0.712127
 H         1.969631         0.927859         2.245632
 H         1.526840        -0.769727         2.173872
 H         3.986367        -0.933294         1.966453
 H         2.786110         2.779189         0.648975
 H         4.063769         2.212073        -0.543412
 H         2.421969         0.980443        -1.656353
 H         4.038833        -0.773236        -0.961066
