19
Iteration:  4281
 C        -0.065093         0.072254        -0.122041
 C         1.418168         0.042960         0.251081
 C         2.028514         0.210949         1.567432
 C         3.491999        -0.152485         1.245555
 O         4.161452         1.145369         1.113786
 C         3.328490         1.889237         0.134388
 C         2.506309         0.855153        -0.553906
 C         3.209632        -0.525664        -0.212573
 O         1.944777        -1.272251        -0.193155
 H        -0.501056        -0.887739        -0.406315
 H        -0.654121         0.428247         0.718561
 H        -0.331082         0.794475        -0.838546
 H         1.824367         1.219951         1.987683
 H         1.469031        -0.521232         2.269428
 H         4.188530        -0.795324         1.776598
 H         2.727645         2.630695         0.658548
 H         3.974075         2.311641        -0.608216
 H         2.275315         1.002898        -1.609062
 H         4.022279        -0.803856        -0.787583
