19
Iteration:  3132charge 0 multiplicity 1
 C        -0.114317         0.122019        -0.002486
 C         1.397734         0.035387         0.141061
 C         1.903715         0.025349         1.576964
 C         3.453932        -0.076350         1.338941
 O         4.116493         1.188271         1.140959
 C         3.392494         1.964378         0.134921
 C         2.601591         0.846188        -0.587672
 C         3.325113        -0.604293        -0.203925
 O         1.941385        -1.212217        -0.327277
 H        -0.664355         0.772919         0.769939
 H        -0.333005         0.437499        -1.057872
 H        -0.467420        -0.906302         0.049074
 H         1.687815         0.992326         2.112042
 H         1.432322        -0.794546         2.270440
 H         4.070680        -0.670325         2.043711
 H         2.798756         2.771252         0.575134
 H         4.230099         2.264040        -0.540241
 H         2.360120         0.984632        -1.753125
 H         4.144083        -1.155642        -0.657404
