19
Iteration:  1258
 C        -0.012210         0.460727        -0.040906
 C         1.429536         0.003907         0.184053
 C         2.058558        -0.180128         1.694925
 C         3.531651        -0.072866         1.324527
 O         3.941868         1.263745         1.152516
 C         3.197435         1.903880         0.143743
 C         2.632839         0.735973        -0.681675
 C         3.279724        -0.590679        -0.255419
 O         1.985342        -1.297822        -0.317331
 H         0.039455         1.572844        -0.249771
 H        -0.467052        -0.113514        -0.931087
 H        -0.767188         0.332024         0.693946
 H         1.718621         0.501197         2.468118
 H         1.824847        -1.133042         2.034229
 H         4.266709        -0.602864         2.037584
 H         2.334978         2.476407         0.515163
 H         3.888174         2.686442        -0.250305
 H         2.511833         1.014784        -1.752022
 H         4.108823        -1.259598        -0.755205
