19
Iteration:  2474charge 0 multiplicity 1
 C        -0.085321         0.169825        -0.019772
 C         1.395805         0.042274         0.189128
 C         1.956404         0.131637         1.653087
 C         3.476685        -0.097054         1.262050
 O         4.104701         1.166857         1.217706
 C         3.338053         1.879890         0.111229
 C         2.557729         0.759459        -0.588569
 C         3.260929        -0.484583        -0.259506
 O         1.969892        -1.288252        -0.329025
 H        -0.462537         0.955774         0.534150
 H        -0.149073         0.315471        -1.069990
 H        -0.594508        -0.809497         0.114839
 H         1.891078         1.160817         2.081761
 H         1.470795        -0.644230         2.139235
 H         4.153770        -0.699284         1.891730
 H         2.802224         2.601760         0.575265
 H         3.981594         2.386306        -0.558925
 H         2.497643         0.846316        -1.656510
 H         4.117495        -0.928537        -0.832662
