19
Iteration:   549charge 0 multiplicity 1
 C        -0.099341         0.095613        -0.059391
 C         1.378102         0.123399         0.164060
 C         1.946988        -0.254233         1.575578
 C         3.510686        -0.240095         1.117899
 O         4.144021         1.002294         1.310565
 C         3.292343         1.953752         0.529050
 C         2.518789         1.025189        -0.393542
 C         3.255147        -0.366408        -0.456234
 O         2.062764        -1.042108        -0.603684
 H        -0.541429         0.839532        -0.740260
 H        -0.160627        -0.862809        -0.565857
 H        -0.732054         0.195215         0.813572
 H         1.753670         0.624522         2.185230
 H         1.521453        -1.158681         2.194016
 H         3.978697        -1.016229         1.757613
 H         2.640299         2.526892         1.233322
 H         3.976291         2.722733         0.186375
 H         2.264872         1.330589        -1.374580
 H         4.071618        -0.546458        -1.131143
