19
Iteration:   689charge 0 multiplicity 1
 C        -0.064672         0.083856        -0.083344
 C         1.384150         0.053147         0.193110
 C         1.985267        -0.076515         1.594455
 C         3.444151        -0.205210         1.164358
 O         4.141044         1.012118         1.270985
 C         3.368953         1.986730         0.536525
 C         2.479514         0.957135        -0.490919
 C         3.208630        -0.337808        -0.376708
 O         2.061154        -1.147618        -0.571393
 H        -0.310583        -0.944938        -0.396014
 H        -0.720835         0.418139         0.721462
 H        -0.531174         0.600089        -1.026788
 H         1.741484         0.768651         2.193569
 H         1.620652        -0.925419         2.081097
 H         4.058632        -1.014745         1.728866
 H         2.605087         2.618752         1.051213
 H         4.081061         2.566504        -0.040215
 H         2.204358         1.379149        -1.454689
 H         4.057844        -0.771001        -0.900150
