19
Iteration:   692
 C        -0.062284         0.074465        -0.097083
 C         1.361823         0.055043         0.202006
 C         1.984892        -0.069286         1.596855
 C         3.456744        -0.204800         1.191229
 O         4.141999         1.008339         1.286987
 C         3.383484         1.985190         0.512858
 C         2.472369         0.977440        -0.515759
 C         3.231219        -0.341716        -0.372823
 O         2.039954        -1.149018        -0.578628
 H        -0.376369        -0.981671        -0.459971
 H        -0.730797         0.312711         0.821138
 H        -0.489509         0.605447        -0.918836
 H         1.727127         0.777943         2.180170
 H         1.600719        -1.026952         2.103401
 H         4.101337        -0.936406         1.689959
 H         2.598969         2.598667         1.081046
 H         4.174521         2.541929        -0.008615
 H         2.164864         1.434581        -1.513332
 H         4.091860        -0.727639        -0.915171
