19
Iteration:   305
 C         0.003599         0.284723         0.070506
 C         1.458970        -0.060947         0.141250
 C         2.109452        -0.515720         1.429336
 C         3.540476        -0.367461         1.047368
 O         3.877629         0.954680         1.490887
 C         3.201129         2.007597         0.604283
 C         2.484904         1.128003        -0.368566
 C         3.273620        -0.207733        -0.472161
 O         2.068412        -0.962390        -0.770641
 H        -0.366703         0.554255        -0.949904
 H        -0.672263        -0.475319         0.543857
 H         0.008781         1.145494         0.806539
 H         1.700381        -0.025343         2.406396
 H         1.957591        -1.646963         1.445458
 H         4.370406        -1.011888         1.470264
 H         2.475214         2.533151         1.298071
 H         3.936853         2.652778         0.139097
 H         2.130636         1.581310        -1.344217
 H         4.160161        -0.342473        -1.166704
