19
Iteration:  2129charge 0 multiplicity 1
 C         0.004984         0.283182        -0.000018
 C         1.440013         0.009538         0.151094
 C         1.968363        -0.059403         1.642310
 C         3.434914        -0.105358         1.345280
 O         4.010140         1.273744         1.180183
 C         3.326052         1.822045         0.116113
 C         2.582101         0.835658        -0.582859
 C         3.318432        -0.586134        -0.226516
 O         1.942947        -1.230022        -0.396465
 H        -0.142942         1.246427         0.031052
 H        -0.320385        -0.133979        -0.977102
 H        -0.508609        -0.272017         0.770120
 H         1.638643         0.760731         2.317122
 H         1.708832        -0.939175         2.088761
 H         4.081220        -0.743115         2.066477
 H         2.591624         2.549288         0.535399
 H         3.893609         2.467784        -0.609365
 H         2.516693         1.096094        -1.592735
 H         4.098245        -1.062012        -0.909589
