19
Iteration:  4342charge 0 multiplicity 1
 C        -0.074193         0.352809        -0.022807
 C         1.463818        -0.002681         0.260031
 C         1.983730         0.012549         1.684177
 C         3.489427        -0.089597         1.205930
 O         3.931114         1.273130         1.220195
 C         3.335863         1.847451        -0.003653
 C         2.572489         0.744483        -0.604469
 C         3.266140        -0.567951        -0.266323
 O         2.058997        -1.337719        -0.273352
 H        -0.615767        -0.422570        -0.587371
 H        -0.446659         0.331009         1.098426
 H        -0.235234         1.424852        -0.430540
 H         1.751901         0.976888         2.079832
 H         1.590457        -0.805922         2.287604
 H         4.101727        -0.797833         1.831274
 H         2.840192         2.811031         0.316350
 H         4.160575         2.215090        -0.703058
 H         2.084089         0.899609        -1.660569
 H         4.185828        -1.105091        -0.807093
