19
Iteration:  1866charge 0 multiplicity 1
 C        -0.099827         0.062976        -0.072313
 C         1.401783         0.067199         0.198949
 C         1.940315         0.048682         1.662541
 C         3.507163        -0.073549         1.230836
 O         4.111049         1.205632         1.276516
 C         3.484255         1.903328         0.123920
 C         2.522663         0.849979        -0.547839
 C         3.211411        -0.508230        -0.252616
 O         1.922677        -1.256211        -0.404757
 H        -0.565372         0.666326         0.674774
 H        -0.515565         0.294458        -1.038628
 H        -0.463487        -1.041305         0.130438
 H         1.868964         1.095478         2.127844
 H         1.511459        -0.594786         2.356975
 H         4.163095        -0.811079         1.769826
 H         2.922232         2.756416         0.435351
 H         4.209095         2.114158        -0.554963
 H         2.309495         1.069417        -1.628435
 H         4.113169        -0.879805        -0.736000
