19
Iteration:   843charge 0 multiplicity 1
 C        -0.125847         0.062613        -0.107583
 C         1.399903         0.031550         0.239145
 C         1.947556        -0.053492         1.624759
 C         3.476746        -0.212510         1.202891
 O         4.093046         1.087205         1.280871
 C         3.372144         1.909229         0.299566
 C         2.559823         0.941424        -0.499023
 C         3.266984        -0.380926        -0.339499
 O         2.012734        -1.123699        -0.451679
 H        -0.812769         0.594386         0.635453
 H        -0.164181         0.755472        -1.003746
 H        -0.543839        -0.924322        -0.385424
 H         1.864038         0.811991         2.339106
 H         1.600917        -1.015841         2.132337
 H         4.046352        -1.025307         1.691332
 H         2.835251         2.735184         0.751760
 H         4.071623         2.435126        -0.354341
 H         2.257457         1.354221        -1.526531
 H         4.094047        -0.649652        -0.981976
