19
Iteration:  2915charge 0 multiplicity 1
 C         0.040589         0.402899        -0.036295
 C         1.495119         0.027026         0.205467
 C         1.987215        -0.048896         1.595012
 C         3.465807        -0.180171         1.326654
 O         4.036899         1.291287         1.143144
 C         3.188048         1.877935         0.100089
 C         2.553497         0.699319        -0.647996
 C         3.311707        -0.578566        -0.217815
 O         1.954742        -1.289006        -0.303895
 H        -0.246388         1.302432         0.676931
 H        -0.140105         0.477769        -1.092392
 H        -0.439562        -0.509577         0.329051
 H         1.671240         0.803900         2.136557
 H         1.610866        -0.895068         2.199059
 H         4.052952        -0.539974         2.129777
 H         2.333471         2.541479         0.618793
 H         3.801460         2.621593        -0.410689
 H         2.441154         0.779286        -1.824067
 H         4.251633        -0.954222        -0.490992
