19
Iteration:  3879
 C         0.038943         0.413853         0.019283
 C         1.443276        -0.055261         0.199727
 C         1.942288         0.015436         1.533785
 C         3.488260        -0.064066         1.222378
 O         4.050228         1.213343         1.228995
 C         3.177271         1.810054         0.201929
 C         2.526980         0.709093        -0.643827
 C         3.309970        -0.543763        -0.264197
 O         2.051908        -1.291187        -0.334264
 H        -0.271165         1.242595         0.643708
 H        -0.319999         0.572751        -0.987612
 H        -0.734031        -0.254862         0.280102
 H         1.677193         0.983382         2.173505
 H         1.784478        -0.729028         2.303986
 H         4.140019        -0.706517         1.856558
 H         2.379894         2.366662         0.707209
 H         3.822324         2.586394        -0.276973
 H         2.394160         0.857485        -1.749175
 H         4.080211        -1.041775        -0.892203
