19
Iteration:  1154
 C        -0.079570         0.179669        -0.032843
 C         1.436418         0.050963         0.198069
 C         1.954636         0.037020         1.654681
 C         3.458437        -0.109536         1.288019
 O         4.042914         1.173729         1.242704
 C         3.395730         1.832636         0.063897
 C         2.537394         0.811766        -0.651729
 C         3.288690        -0.443284        -0.223979
 O         1.991893        -1.236158        -0.334906
 H        -0.777819         0.666210         0.612078
 H        -0.273549         0.669425        -0.923428
 H        -0.521603        -0.861099        -0.143110
 H         1.841909         1.033626         2.242032
 H         1.528525        -0.898945         2.258913
 H         3.928960        -0.853891         1.933602
 H         2.876267         2.681509         0.621815
 H         4.163649         2.175997        -0.629968
 H         2.413023         1.033648        -1.697657
 H         4.070921        -0.894551        -0.744761
