19
Iteration:    44
 C        -0.110622        -0.071004        -0.108795
 C         1.406160         0.090771         0.146647
 C         2.029535        -0.476668         1.370545
 C         3.557615        -0.444963         0.962534
 O         4.119528         0.779824         1.494635
 C         3.296568         1.886392         0.961858
 C         2.368519         1.262118        -0.139792
 C         3.294235        -0.003731        -0.521318
 O         2.018071        -0.702560        -0.922082
 H        -0.344342        -0.994537         0.484037
 H        -0.630082         0.753552         0.355024
 H        -0.212748        -0.224824        -1.174163
 H         1.652369         0.099119         2.216751
 H         1.730680        -1.456518         1.468733
 H         4.308857        -1.190201         1.141255
 H         2.800640         2.511215         1.733014
 H         3.958973         2.662879         0.353577
 H         2.065898         1.891882        -0.965840
 H         4.072513        -0.131974        -1.236667
