19
Iteration:   721
 C        -0.128654         0.077542        -0.030420
 C         1.339224         0.110886         0.195562
 C         1.980337        -0.192547         1.547102
 C         3.448894        -0.232675         1.184476
 O         4.054620         1.111121         1.335365
 C         3.406115         1.968630         0.377973
 C         2.571074         0.933274        -0.463878
 C         3.261095        -0.399262        -0.331672
 O         2.042378        -1.059469        -0.567973
 H        -0.296256        -0.639107        -0.828319
 H        -0.572276        -0.523361         0.744765
 H        -0.650145         1.104850        -0.294791
 H         1.721904         0.607933         2.271680
 H         1.648303        -1.136944         1.858040
 H         4.231442        -0.922532         1.693367
 H         2.833819         2.842203         0.726933
 H         4.279295         2.317472        -0.203218
 H         2.329111         1.238662        -1.482083
 H         4.092143        -0.835277        -0.909120
