19
Iteration:   798
 C         0.026214         0.386791        -0.057164
 C         1.469725         0.019828         0.193506
 C         2.004356        -0.260048         1.580550
 C         3.495387        -0.171096         1.168553
 O         4.020477         1.149228         1.226372
 C         3.114682         1.893872         0.380355
 C         2.550462         0.831188        -0.541777
 C         3.356382        -0.456951        -0.299746
 O         2.011765        -1.154298        -0.467646
 H         0.125949         1.461028        -0.318956
 H        -0.371273        -0.175276        -0.891358
 H        -0.521310         0.141865         0.922880
 H         1.646658         0.565077         2.314637
 H         1.620055        -1.246593         1.898572
 H         4.266402        -0.671565         1.869048
 H         2.294474         2.238047         0.983044
 H         3.546011         2.847884         0.066930
 H         2.281197         1.075321        -1.619606
 H         4.099287        -1.016224        -0.856619
