19
Iteration:  2028
 C        -0.075321         0.019879        -0.031427
 C         1.365065         0.097709         0.150094
 C         1.889869         0.080873         1.589705
 C         3.405631        -0.153321         1.294173
 O         4.174047         1.119513         1.251208
 C         3.438727         1.885515         0.096845
 C         2.529044         0.928624        -0.620244
 C         3.218417        -0.455281        -0.239231
 O         2.010672        -1.187755        -0.307886
 H        -0.502715         0.388851         0.850989
 H        -0.489059         0.425200        -0.870876
 H        -0.264030        -1.077251        -0.039281
 H         1.809533         0.980058         2.269332
 H         1.363064        -0.717428         2.050252
 H         4.039649        -0.725026         2.005638
 H         2.934306         2.734948         0.546357
 H         4.266483         2.104248        -0.665778
 H         2.277060         1.047035        -1.709666
 H         4.061539        -0.849845        -0.801670
