19
Iteration:  4142
 C        -0.091336         0.121018        -0.167307
 C         1.429888         0.114988         0.273232
 C         2.014653        -0.042417         1.700566
 C         3.536878        -0.151294         1.304710
 O         4.158086         1.153610         1.120181
 C         3.278904         1.939804         0.128727
 C         2.539188         0.870198        -0.592228
 C         3.197983        -0.543181        -0.223373
 O         1.940259        -1.180507        -0.298117
 H        -0.666294         0.412444         0.790360
 H        -0.079437         0.817233        -0.998397
 H        -0.399930        -0.902646        -0.542861
 H         2.012297         0.809277         2.401233
 H         1.522995        -0.814461         2.147384
 H         4.180578        -0.736164         1.974955
 H         2.521836         2.576943         0.621901
 H         3.961707         2.459414        -0.571069
 H         2.306399         1.075891        -1.565903
 H         3.901298        -0.912794        -0.895015
