19
Iteration:  3641
 C        -0.124180         0.093737        -0.061795
 C         1.370500        -0.006083         0.198236
 C         1.968486         0.075420         1.586106
 C         3.470014        -0.112318         1.235462
 O         4.076814         1.074811         1.266721
 C         3.376501         1.900304         0.196710
 C         2.600378         0.891000        -0.564413
 C         3.238716        -0.469393        -0.272981
 O         2.019193        -1.175252        -0.407085
 H        -0.457587        -0.053001        -1.148854
 H        -0.663756        -0.712681         0.590242
 H        -0.450195         1.060891         0.415455
 H         1.872570         1.044875         2.173314
 H         1.628181        -0.599048         2.296981
 H         3.976752        -0.783345         1.837960
 H         2.758075         2.675972         0.693842
 H         4.210606         2.296734        -0.369597
 H         2.422720         0.921128        -1.625973
 H         4.069630        -0.656275        -0.822133
