19
Iteration:  3859
 C        -0.015499         0.395942        -0.064891
 C         1.460192         0.006637         0.138159
 C         1.962324        -0.066934         1.632881
 C         3.465555        -0.168007         1.268302
 O         4.037523         1.195687         1.115184
 C         3.174355         1.981626         0.228495
 C         2.541668         0.754933        -0.584141
 C         3.283250        -0.571279        -0.232114
 O         2.063797        -1.355770        -0.318751
 H         0.166693         1.500573         0.154293
 H        -0.564101         0.353404        -0.979141
 H        -0.623460         0.007109         0.770035
 H         1.899708         0.773535         2.435267
 H         1.543227        -0.901142         2.159676
 H         4.339929        -0.553653         1.927199
 H         2.430333         2.668556         0.669853
 H         3.745986         2.667118        -0.448761
 H         2.468544         0.987298        -1.657464
 H         4.216251        -0.887185        -0.813040
