19
Iteration:  2558charge 0 multiplicity 1
 C        -0.016592         0.269786         0.003717
 C         1.410410         0.037215         0.204168
 C         1.989142        -0.015524         1.593282
 C         3.399228        -0.101615         1.192202
 O         3.994369         1.261887         1.230075
 C         3.344421         1.872527         0.115394
 C         2.582210         0.743787        -0.608193
 C         3.287915        -0.555383        -0.284505
 O         2.031287        -1.310642        -0.267422
 H        -0.186812         1.413006         0.252360
 H        -0.429907         0.290613        -0.984106
 H        -0.671245        -0.183233         0.774792
 H         1.669643         0.842509         2.080747
 H         1.718839        -0.878092         2.301894
 H         4.112321        -0.606314         1.841231
 H         2.587473         2.596995         0.483957
 H         3.994676         2.374781        -0.664107
 H         2.345665         0.972644        -1.703727
 H         4.195332        -0.995839        -0.770363
