19
Iteration:  2328charge 0 multiplicity 1
 C        -0.112018         0.051768        -0.079549
 C         1.423801         0.057923         0.235241
 C         1.937584         0.210618         1.669498
 C         3.476431        -0.087980         1.322025
 O         4.082632         1.071315         1.143695
 C         3.402818         1.870169         0.136363
 C         2.560380         0.821285        -0.536053
 C         3.243807        -0.493434        -0.260389
 O         1.979178        -1.194868        -0.379933
 H        -0.698448         0.615019         0.692797
 H        -0.313429         0.420253        -1.084999
 H        -0.431506        -0.934342         0.048455
 H         1.851141         1.142633         2.098861
 H         1.586043        -0.663062         2.331837
 H         4.093482        -0.787921         1.891787
 H         2.883766         2.722693         0.510175
 H         4.189467         2.236326        -0.564455
 H         2.248466         1.041564        -1.663423
 H         4.114903        -0.918404        -0.721426
