19
Iteration:  4684
 C         0.026259         0.471078        -0.159296
 C         1.426526         0.007743         0.265774
 C         2.038705         0.042492         1.735356
 C         3.558828        -0.056936         1.262047
 O         3.912370         1.276181         1.102816
 C         3.229745         1.829436        -0.105682
 C         2.563616         0.669688        -0.669189
 C         3.274766        -0.620476        -0.127361
 O         1.979828        -1.392961        -0.076609
 H        -0.684807        -0.424090        -0.386486
 H        -0.396322         1.111429         0.613840
 H         0.150404         1.110522        -1.041202
 H         2.053005         1.004178         2.210413
 H         1.834663        -0.788008         2.396338
 H         4.438139        -0.671542         1.869166
 H         2.646032         2.631819         0.340504
 H         3.700465         2.440732        -0.969041
 H         2.129838         0.620090        -1.674384
 H         4.132654        -1.227319        -0.583513
