19
Iteration:  1575
 C         0.007760         0.335188         0.033931
 C         1.437281         0.100506         0.178809
 C         1.934814        -0.175757         1.654028
 C         3.469242        -0.027565         1.266473
 O         3.928364         1.282695         1.221811
 C         3.347246         1.835506         0.046882
 C         2.646535         0.736877        -0.660615
 C         3.257569        -0.600849        -0.223499
 O         2.020410        -1.218520        -0.327276
 H        -0.447088         1.009064         0.753582
 H        -0.325907         0.781106        -0.994782
 H        -0.610129        -0.620547         0.272890
 H         1.655062         0.546131         2.428434
 H         1.609512        -1.230489         1.879417
 H         4.184375        -0.587314         1.870119
 H         2.705563         2.661326         0.374460
 H         4.095054         2.200757        -0.587248
 H         2.406015         1.015075        -1.657480
 H         4.048011        -1.181892        -0.598089
