19
Iteration:  1566charge 0 multiplicity 1
 C        -0.060942         0.279967        -0.021615
 C         1.421801         0.079188         0.201636
 C         1.967939        -0.076672         1.634306
 C         3.466366        -0.099117         1.259208
 O         3.993022         1.291906         1.230472
 C         3.330378         1.889202         0.069949
 C         2.646340         0.781325        -0.570931
 C         3.296542        -0.610611        -0.251606
 O         1.957160        -1.249167        -0.336215
 H        -0.274497         1.136694         0.672751
 H        -0.281873         0.549144        -1.125369
 H        -0.579870        -0.578306         0.296295
 H         1.697539         0.575220         2.420874
 H         1.872437        -1.208679         1.961885
 H         3.990606        -0.691470         2.008490
 H         2.584402         2.727012         0.245832
 H         4.192764         2.197228        -0.541052
 H         2.389436         0.887474        -1.687581
 H         4.088789        -1.130052        -0.803562
