19
Iteration:  4585charge 0 multiplicity 1
 C        -0.130524         0.080563        -0.162971
 C         1.353354         0.041726         0.310687
 C         2.001188         0.166467         1.684145
 C         3.546832        -0.062703         1.261864
 O         4.116647         1.203491         1.137449
 C         3.463751         1.841562        -0.030980
 C         2.492115         0.794869        -0.633505
 C         3.218548        -0.543182        -0.228235
 O         1.949927        -1.263047        -0.109332
 H        -0.787028         0.116134         0.777748
 H        -0.316947         1.021006        -0.828463
 H        -0.427906        -0.815782        -0.652990
 H         1.934006         1.177269         1.956027
 H         1.450876        -0.444530         2.409309
 H         4.137514        -0.758740         1.968518
 H         2.899417         2.755023         0.137476
 H         4.369589         2.012341        -0.654300
 H         2.026304         1.025277        -1.550284
 H         4.013956        -0.905848        -0.810052
