19
Iteration:  1888
 C        -0.079433         0.215293         0.026461
 C         1.457036         0.068880         0.191630
 C         1.967121        -0.081061         1.587650
 C         3.422490        -0.118763         1.313139
 O         4.010853         1.210685         1.163574
 C         3.355231         1.905968         0.101043
 C         2.597251         0.793210        -0.590932
 C         3.283078        -0.553948        -0.250934
 O         2.008680        -1.162926        -0.333969
 H        -0.387347         1.113478         0.499539
 H        -0.366105         0.281499        -1.041303
 H        -0.716924        -0.709970         0.398602
 H         1.764638         0.669277         2.406820
 H         1.655650        -1.000383         1.970608
 H         4.044141        -0.725276         2.042783
 H         2.667006         2.654856         0.521295
 H         4.034604         2.312068        -0.557232
 H         2.486026         0.892345        -1.686616
 H         4.179508        -0.940031        -0.760223
