19
Iteration:  3350charge 0 multiplicity 1
 C        -0.042707         0.278816        -0.049087
 C         1.504848         0.145721         0.184249
 C         1.894882         0.081827         1.625300
 C         3.497219        -0.092642         1.316731
 O         4.066979         1.203737         1.144022
 C         3.293627         1.927151         0.094559
 C         2.586514         0.744231        -0.619131
 C         3.242126        -0.617679        -0.216817
 O         1.983394        -1.395989        -0.237051
 H        -0.630971        -0.733293        -0.042081
 H        -0.403990         0.992296         0.694785
 H        -0.207413         0.642307        -1.084488
 H         1.845232         1.027740         2.050398
 H         1.369197        -0.757040         2.061109
 H         4.239660        -0.626517         1.921745
 H         2.626078         2.661820         0.588395
 H         3.963454         2.588250        -0.569744
 H         2.290314         0.724843        -1.733666
 H         4.093062        -0.996972        -0.816767
