19
Iteration:  3426charge 0 multiplicity 1
 C        -0.099466         0.251298        -0.034344
 C         1.472624         0.027830         0.204566
 C         1.879802         0.084502         1.655436
 C         3.479544        -0.120961         1.293606
 O         4.068218         1.162733         1.229884
 C         3.308940         1.877818         0.076144
 C         2.637549         0.741345        -0.668876
 C         3.251109        -0.516800        -0.268959
 O         2.010530        -1.242299        -0.303874
 H        -0.491096         0.348031         0.987124
 H        -0.448151         1.112769        -0.552585
 H        -0.336086        -0.652004        -0.518737
 H         1.819533         1.026062         2.172879
 H         1.465294        -0.752424         2.240286
 H         4.003736        -0.701405         2.015498
 H         2.586825         2.595028         0.473181
 H         4.104106         2.433147        -0.487663
 H         2.517709         0.684883        -1.772370
 H         4.065328        -0.900912        -0.857935
