19
Iteration:  1143charge 0 multiplicity 1
 C        -0.052081         0.258536        -0.043063
 C         1.395702         0.043262         0.188219
 C         1.932874         0.008923         1.587272
 C         3.478657        -0.149299         1.303366
 O         4.033737         1.228936         1.220219
 C         3.368601         1.868855         0.127630
 C         2.525917         0.782501        -0.566319
 C         3.254091        -0.555716        -0.280786
 O         2.059305        -1.256387        -0.324016
 H        -0.255098         0.826962         0.844237
 H        -0.195366         0.742110        -0.951963
 H        -0.554048        -0.751374        -0.073617
 H         1.707104         1.027672         2.105990
 H         1.308627        -0.787159         2.241052
 H         4.205204        -0.671792         1.964271
 H         2.707938         2.791581         0.352691
 H         4.144781         2.293882        -0.510485
 H         2.254617         0.816269        -1.609276
 H         4.050419        -0.873935        -0.890107
