19
Iteration:  1994
 C        -0.134501         0.000480        -0.076860
 C         1.334505         0.018010         0.234827
 C         1.971321         0.087762         1.608217
 C         3.471886        -0.122002         1.310500
 O         4.154195         1.152966         1.279724
 C         3.426329         1.904191         0.137067
 C         2.581731         0.887270        -0.634363
 C         3.203815        -0.492425        -0.247257
 O         1.976843        -1.185784        -0.403422
 H        -0.564571         0.947041         0.309606
 H        -0.356703        -0.022813        -1.070118
 H        -0.685431        -0.769160         0.458023
 H         2.072412         1.036518         2.151449
 H         1.666829        -0.675339         2.327088
 H         3.919121        -0.861984         1.964822
 H         2.884021         2.768872         0.526626
 H         4.195404         2.491601        -0.497994
 H         2.243197         1.141978        -1.717630
 H         3.976785        -0.869783        -0.851607
