19
Iteration:  3053
 C        -0.003387         0.289362        -0.150660
 C         1.444258         0.017602         0.252122
 C         2.015315        -0.148550         1.648775
 C         3.525265        -0.113327         1.350430
 O         4.040082         1.207542         1.131930
 C         3.245750         1.876859         0.091877
 C         2.521600         0.797037        -0.566240
 C         3.277524        -0.526605        -0.204425
 O         1.981210        -1.190357        -0.309423
 H         0.050842         1.243098        -0.663160
 H        -0.558488        -0.443804        -0.870864
 H        -0.735151         0.441970         0.666910
 H         1.771874         0.786918         2.300034
 H         1.723360        -1.006998         2.225768
 H         4.188981        -0.659146         1.964854
 H         2.427033         2.473034         0.544269
 H         3.862511         2.645102        -0.446116
 H         2.184567         0.926470        -1.604016
 H         4.137113        -0.930192        -0.732939
