19
Iteration:  2432charge 0 multiplicity 1
 C        -0.056850         0.444998         0.006924
 C         1.448222         0.086264         0.228731
 C         1.987058        -0.164805         1.617021
 C         3.532695        -0.114764         1.276505
 O         3.922364         1.272358         1.232017
 C         3.266522         1.860255         0.023285
 C         2.597730         0.711194        -0.690877
 C         3.344971        -0.544924        -0.166257
 O         2.010890        -1.300285        -0.302442
 H        -0.270295         1.451603         0.149340
 H        -0.497925         0.097659        -0.994920
 H        -0.730400        -0.109215         0.755743
 H         1.645936         0.656491         2.428784
 H         1.713913        -1.133577         1.871855
 H         4.245412        -0.711960         1.850989
 H         2.555684         2.724784         0.242197
 H         4.092488         2.267751        -0.520764
 H         2.429748         0.720960        -1.712801
 H         4.145135        -0.794827        -0.877262
