19
Iteration:  3299charge 0 multiplicity 1
 C        -0.054060         0.132664        -0.088211
 C         1.397879         0.106443         0.245663
 C         1.854685         0.091606         1.699098
 C         3.372923        -0.071415         1.289906
 O         4.184547         1.246335         1.092364
 C         3.455716         1.806367         0.063581
 C         2.587267         0.782639        -0.588510
 C         3.216467        -0.551486        -0.183753
 O         1.954839        -1.232622        -0.262933
 H        -0.070980        -0.889840        -0.440181
 H        -0.733192         0.275366         0.679753
 H        -0.443832         0.579352        -1.038857
 H         1.745520         1.057983         2.174999
 H         1.685822        -0.841697         2.350165
 H         4.018123        -0.656051         1.886921
 H         2.783413         2.616374         0.415150
 H         4.054971         2.254330        -0.711037
 H         2.431871         0.998382        -1.569596
 H         4.035327        -1.107150        -0.661890
