19
Iteration:   502
 C        -0.057966         0.163411        -0.098686
 C         1.409016         0.045787         0.230947
 C         2.011159        -0.311520         1.546868
 C         3.529766        -0.324370         1.097407
 O         4.132437         1.046426         1.303714
 C         3.187569         1.982050         0.554980
 C         2.518465         1.028559        -0.373513
 C         3.240872        -0.335449        -0.408454
 O         2.030399        -1.033204        -0.600132
 H        -0.208897        -0.312813        -1.011387
 H        -0.772915        -0.286468         0.574616
 H        -0.193634         1.264083        -0.350760
 H         1.859174         0.356355         2.385005
 H         1.626443        -1.229381         1.776798
 H         4.108663        -1.154493         1.473638
 H         2.536933         2.556212         1.268287
 H         3.669284         2.745797         0.038547
 H         2.307404         1.500469        -1.317072
 H         4.107008        -0.568773        -1.086512
