19
Iteration:   423charge 0 multiplicity 1
 C        -0.023727         0.320032         0.078591
 C         1.434512         0.069962         0.222628
 C         1.995813        -0.533861         1.500653
 C         3.533047        -0.272280         1.100738
 O         3.921792         1.095803         1.466780
 C         3.247382         1.962142         0.532809
 C         2.543959         0.990871        -0.503335
 C         3.341903        -0.298371        -0.481944
 O         2.067105        -1.044494        -0.721842
 H        -0.560395         0.051707         1.024741
 H        -0.371861         1.337815        -0.185685
 H        -0.392592        -0.336045        -0.649559
 H         1.772667         0.009910         2.424717
 H         1.632681        -1.481915         1.580659
 H         4.175830        -1.093736         1.491212
 H         2.531174         2.537469         1.146256
 H         3.981813         2.580808         0.052003
 H         2.043402         1.396451        -1.499003
 H         4.199272        -0.617208        -1.106089
