19
Iteration:  3121
 C        -0.047353         0.154467        -0.011390
 C         1.447366         0.093150         0.192322
 C         1.918330         0.053050         1.591485
 C         3.423027        -0.087602         1.264103
 O         4.063121         1.197057         1.167347
 C         3.380118         1.871776         0.132336
 C         2.630667         0.771871        -0.569343
 C         3.194932        -0.540594        -0.185900
 O         2.040695        -1.277289        -0.378888
 H        -0.445662         1.020322         0.655962
 H        -0.522333         0.344003        -1.001832
 H        -0.505309        -0.762537         0.410855
 H         1.857485         1.054391         2.094139
 H         1.354999        -0.801861         2.190484
 H         3.949992        -0.570682         2.093617
 H         2.727688         2.651785         0.551563
 H         4.006620         2.534329        -0.553356
 H         2.298691         1.113754        -1.673349
 H         3.964709        -1.035199        -0.744375
