19
Iteration:  4966charge 0 multiplicity 1
 C        -0.169471         0.249338        -0.024331
 C         1.426036         0.014238         0.153187
 C         1.949452         0.216989         1.677143
 C         3.463270        -0.048587         1.297887
 O         4.133411         1.299223         1.005155
 C         3.313957         1.799657        -0.056303
 C         2.562549         0.628487        -0.661741
 C         3.347666        -0.626224        -0.059756
 O         1.982697        -1.302868        -0.113701
 H        -0.573258        -0.695281        -0.565639
 H        -0.659139         0.355843         0.959878
 H        -0.368000         1.159171        -0.620454
 H         2.002534         1.224751         2.142506
 H         1.441802        -0.541315         2.328951
 H         4.116273        -0.657416         2.038400
 H         2.735202         2.645259         0.385569
 H         3.881790         2.262867        -0.851098
 H         2.424732         0.733276        -1.728106
 H         4.128906        -1.174802        -0.658216
