19
Iteration:  3505
 C        -0.022404         0.193823        -0.130059
 C         1.458633        -0.024109         0.215961
 C         1.972538        -0.051185         1.680092
 C         3.461541        -0.159970         1.230870
 O         4.071344         1.256655         1.253910
 C         3.370907         1.924229         0.094796
 C         2.556381         0.827372        -0.551003
 C         3.211616        -0.546141        -0.284353
 O         1.932936        -1.198327        -0.285614
 H        -0.205243         1.252967        -0.027113
 H        -0.139040        -0.163819        -1.124567
 H        -0.786348        -0.198506         0.588692
 H         1.914439         0.801874         2.226748
 H         1.487454        -0.845002         2.251863
 H         4.096157        -0.838503         1.857665
 H         2.647985         2.668739         0.446312
 H         4.075247         2.369420        -0.667026
 H         2.334983         0.964808        -1.590621
 H         4.100961        -0.850655        -0.918360
