19
Iteration:  2462
 C         0.024936         0.234493        -0.003161
 C         1.475718         0.019207         0.200095
 C         1.933869         0.016619         1.663864
 C         3.459819        -0.091911         1.302318
 O         4.043491         1.223081         1.202904
 C         3.320020         1.928875         0.080112
 C         2.578426         0.807646        -0.670219
 C         3.263392        -0.581834        -0.214018
 O         1.945703        -1.300339        -0.367523
 H        -0.383211         1.088324         0.552819
 H        -0.348801         0.408209        -0.962257
 H        -0.494940        -0.610509         0.488726
 H         1.614867         0.952730         2.098458
 H         1.580550        -0.665862         2.425186
 H         4.024503        -0.835763         1.910774
 H         2.645290         2.664874         0.413829
 H         4.176505         2.318328        -0.451813
 H         2.225912         0.946454        -1.748162
 H         4.165702        -0.967988        -0.797784
