19
Iteration:  2619charge 0 multiplicity 1
 C         0.020545         0.289746        -0.074268
 C         1.486782         0.046440         0.207388
 C         2.031658        -0.076384         1.667302
 C         3.507337        -0.095001         1.335895
 O         3.996481         1.287128         1.224941
 C         3.289625         1.865134         0.053207
 C         2.512098         0.776251        -0.637638
 C         3.183984        -0.565277        -0.336982
 O         1.983483        -1.305099        -0.233694
 H         0.077128         1.381049        -0.001068
 H        -0.254840         0.037480        -1.162721
 H        -0.608864        -0.121854         0.678506
 H         1.766286         0.797864         2.365392
 H         1.552841        -1.022336         1.986731
 H         4.167709        -0.678350         2.032712
 H         2.585036         2.644804         0.646678
 H         3.920157         2.368379        -0.700411
 H         2.375487         0.893252        -1.760180
 H         4.059727        -0.844075        -0.913027
