19
Iteration:   274
 C        -0.041178         0.372998         0.095058
 C         1.424066         0.035112         0.203793
 C         2.108174        -0.548927         1.414818
 C         3.610521        -0.368259         1.050926
 O         3.891729         0.994496         1.498148
 C         3.131797         1.960667         0.674242
 C         2.478951         1.075102        -0.323910
 C         3.318108        -0.270876        -0.536076
 O         2.133199        -1.000005        -0.871852
 H        -0.608334        -0.237649        -0.587274
 H        -0.543825         0.273781         1.082816
 H        -0.313661         1.453690        -0.224264
 H         1.775586        -0.164644         2.414589
 H         1.848436        -1.675758         1.427960
 H         4.405570        -1.030552         1.502249
 H         2.395561         2.490712         1.221045
 H         3.657815         2.784652         0.090300
 H         2.068884         1.539055        -1.126887
 H         4.259874        -0.352542        -1.171744
