19
Iteration:  4522
 C         0.017513         0.444369        -0.010814
 C         1.437929         0.066584         0.207583
 C         2.004846         0.139809         1.548202
 C         3.489018        -0.095551         1.267904
 O         3.953909         1.313490         1.149799
 C         3.182770         1.820755        -0.006338
 C         2.560578         0.557610        -0.682823
 C         3.322218        -0.633111        -0.167734
 O         2.020218        -1.441356        -0.171115
 H        -0.146683         1.154869         0.917626
 H        -0.112402         1.111475        -0.875515
 H        -0.752578        -0.304937         0.007974
 H         2.114594         1.091879         2.135568
 H         1.740368        -0.697765         2.212166
 H         4.277756        -0.633397         1.936608
 H         2.351135         2.536264         0.300135
 H         3.881323         2.546731        -0.374601
 H         2.299918         0.710244        -1.712091
 H         4.284331        -1.024433        -0.473726
