19
Iteration:  1634charge 0 multiplicity 1
 C        -0.051239         0.244725        -0.110388
 C         1.428568         0.038466         0.203434
 C         1.989727        -0.026479         1.639266
 C         3.461003        -0.095743         1.281878
 O         4.095835         1.197221         1.222726
 C         3.278337         1.951323         0.077450
 C         2.589274         0.747607        -0.598953
 C         3.273220        -0.517972        -0.231850
 O         1.939633        -1.280396        -0.276615
 H        -0.404037         0.856225         0.774222
 H        -0.173119         0.803857        -1.042075
 H        -0.577822        -0.660916        -0.194701
 H         1.867588         0.755925         2.396251
 H         1.612994        -1.026109         2.114468
 H         4.065950        -0.692505         1.994672
 H         2.567608         2.651581         0.605240
 H         3.970961         2.436188        -0.659298
 H         2.458474         1.043962        -1.753323
 H         4.123414        -0.880734        -0.893738
