19
Iteration:  3949
 C        -0.106411         0.053729        -0.041202
 C         1.288837         0.000063         0.199562
 C         2.005578         0.015520         1.654994
 C         3.495139        -0.099838         1.243612
 O         4.095801         1.149172         1.205990
 C         3.497362         1.862362         0.126335
 C         2.482974         0.944695        -0.582407
 C         3.205085        -0.443336        -0.234597
 O         2.010802        -1.200086        -0.353472
 H        -0.766637         0.478438         0.716631
 H        -0.259424         0.467510        -0.992731
 H        -0.509542        -0.958778        -0.305283
 H         1.787500         1.016947         2.013614
 H         1.499805        -0.555998         2.440983
 H         3.955650        -0.726974         2.005911
 H         3.309288         2.841090         0.590969
 H         4.314309         2.055121        -0.580958
 H         2.201115         1.125242        -1.579970
 H         4.046284        -0.863174        -0.738479
