19
Iteration:   983charge 0 multiplicity 1
 C         0.006189         0.248561        -0.074598
 C         1.415674        -0.027281         0.133656
 C         1.978664        -0.056749         1.697814
 C         3.411158        -0.165517         1.253386
 O         4.033886         1.154772         1.232592
 C         3.279789         1.895701         0.227636
 C         2.545247         0.840351        -0.592080
 C         3.304295        -0.448840        -0.303252
 O         2.019621        -1.224418        -0.370145
 H        -0.254881         0.467242        -1.118196
 H        -0.643138        -0.515355         0.331137
 H        -0.300275         1.167483         0.519264
 H         1.839741         0.906750         2.290080
 H         1.518674        -0.886081         2.245670
 H         4.170381        -0.838408         1.640925
 H         2.775839         2.764839         0.695939
 H         4.033059         2.423178        -0.448043
 H         2.280332         1.132123        -1.656850
 H         4.138069        -0.885294        -0.803998
