19
Iteration:  3067charge 0 multiplicity 1
 C         0.018584         0.371282        -0.136807
 C         1.436063         0.004001         0.234568
 C         2.002458        -0.094345         1.784768
 C         3.473147        -0.054902         1.249778
 O         4.075391         1.241450         1.174808
 C         3.192129         1.941168         0.171906
 C         2.561204         0.728177        -0.628268
 C         3.288656        -0.526396        -0.250308
 O         1.954728        -1.332654        -0.339660
 H        -0.211359         1.330587        -0.701739
 H        -0.102178        -0.406494        -0.853739
 H        -0.635888         0.334747         0.696861
 H         1.716087         0.641022         2.571464
 H         1.749630        -1.218717         1.925798
 H         4.176038        -0.628982         1.854536
 H         2.651595         2.755429         0.702391
 H         3.931928         2.410735        -0.517104
 H         2.221518         0.903394        -1.767678
 H         4.059627        -1.029224        -0.771500
