19
Iteration:  3535charge 0 multiplicity 1
 C        -0.090421         0.361167         0.035800
 C         1.471088         0.058407         0.118767
 C         2.001150        -0.116786         1.588034
 C         3.439695        -0.114271         1.345105
 O         4.000789         1.197437         1.184581
 C         3.284300         1.915487         0.094129
 C         2.606038         0.798379        -0.574351
 C         3.301598        -0.601359        -0.187202
 O         2.044306        -1.241047        -0.374895
 H        -0.427396         1.346045        -0.376747
 H        -0.527866        -0.334214        -0.603172
 H        -0.643936         0.293536         0.954406
 H         1.647154         0.627427         2.321301
 H         1.595318        -1.172058         1.819718
 H         4.079104        -0.564884         2.071877
 H         2.522137         2.617368         0.443289
 H         3.931735         2.449502        -0.613521
 H         2.504259         0.657982        -1.598284
 H         4.147730        -0.773868        -0.811590
