19
Iteration:   708charge 0 multiplicity 1
 C        -0.167753        -0.017838        -0.068773
 C         1.423719         0.029746         0.115259
 C         1.936601        -0.162472         1.599533
 C         3.489884        -0.210523         1.191238
 O         4.129577         1.085423         1.366869
 C         3.382250         1.903695         0.357678
 C         2.575328         1.037521        -0.462776
 C         3.269428        -0.364454        -0.363543
 O         1.969637        -1.040574        -0.534666
 H        -0.401985        -0.782722        -0.734323
 H        -0.655642         0.016280         0.845672
 H        -0.474468         1.004673        -0.496482
 H         1.809303         0.733082         2.363763
 H         1.527885        -1.030945         2.074302
 H         4.000969        -1.016689         1.741565
 H         2.858176         2.612346         0.943142
 H         4.017205         2.522845        -0.326750
 H         2.448164         1.332759        -1.460313
 H         4.078750        -0.631884        -1.085058
