19
Iteration:  4695charge 0 multiplicity 1
 C         0.031021         0.465589        -0.145239
 C         1.439045         0.024472         0.260308
 C         2.095473        -0.008171         1.789315
 C         3.491427        -0.049339         1.313623
 O         3.945863         1.333403         1.006740
 C         3.276799         1.889182        -0.089306
 C         2.487554         0.634580        -0.659046
 C         3.285007        -0.685969        -0.120298
 O         1.962277        -1.377336        -0.112333
 H        -0.585680        -0.453944        -0.464661
 H        -0.530599         0.959712         0.628234
 H         0.068479         1.098441        -1.044518
 H         1.852930         0.841086         2.423099
 H         1.608852        -0.849228         2.254435
 H         4.349171        -0.469308         2.043476
 H         2.514537         2.611353         0.238496
 H         4.186483         2.327511        -0.634625
 H         2.269342         0.688336        -1.740419
 H         4.161913        -1.236395        -0.595878
