19
Iteration:  4687
 C         0.028455         0.475294        -0.156230
 C         1.410138         0.018560         0.257073
 C         2.063327         0.014164         1.760451
 C         3.551095        -0.057923         1.303954
 O         3.905987         1.292207         1.066307
 C         3.263974         1.845220        -0.107012
 C         2.524260         0.674800        -0.678313
 C         3.293284        -0.646876        -0.122451
 O         1.969017        -1.401719        -0.086969
 H        -0.653815        -0.467019        -0.405102
 H        -0.440358         1.059741         0.621793
 H         0.190923         1.158699        -1.106193
 H         2.050794         1.031661         2.280826
 H         1.779261        -0.835242         2.366637
 H         4.401829        -0.587384         1.851596
 H         2.657974         2.642635         0.370669
 H         3.784170         2.508649        -0.865057
 H         2.113531         0.652920        -1.738587
 H         4.200993        -1.236440        -0.522176
