19
Iteration:   518charge 0 multiplicity 1
 C        -0.076636         0.140471        -0.185391
 C         1.368567         0.042631         0.172640
 C         2.026299        -0.228668         1.673295
 C         3.514692        -0.212639         1.115948
 O         4.178340         0.997964         1.277283
 C         3.272644         1.898766         0.627732
 C         2.448051         1.034501        -0.385215
 C         3.236657        -0.276588        -0.475348
 O         2.025868        -1.089700        -0.612365
 H        -0.184560         0.022891        -1.338304
 H        -0.643532        -0.693794         0.326315
 H        -0.624724         0.998624         0.134063
 H         1.779595         0.653564         2.335258
 H         1.717799        -1.253757         2.251599
 H         4.154689        -0.979694         1.613090
 H         2.617372         2.305102         1.403136
 H         4.006054         2.698763         0.205216
 H         2.062208         1.466862        -1.356750
 H         4.077047        -0.469004        -1.138605
