19
Iteration:  2302
 C        -0.089485         0.176260        -0.070812
 C         1.402872         0.027188         0.208422
 C         1.923509        -0.018192         1.628745
 C         3.501065        -0.144274         1.267304
 O         4.063584         1.291859         1.247741
 C         3.429171         1.930061         0.060420
 C         2.600394         0.811248        -0.616138
 C         3.195167        -0.552709        -0.257040
 O         1.961819        -1.232857        -0.279518
 H        -0.470546         0.649042         0.820693
 H        -0.330468         0.819517        -1.008968
 H        -0.621429        -0.851824        -0.029903
 H         1.865156         0.809478         2.467100
 H         1.667409        -0.942828         2.061333
 H         4.203956        -0.820836         1.833185
 H         2.844526         2.819020         0.293061
 H         4.226979         2.075835        -0.686765
 H         2.364312         0.987364        -1.586435
 H         3.995742        -1.175404        -0.696701
