19
Iteration:  3074charge 0 multiplicity 1
 C         0.025494         0.379225        -0.116450
 C         1.471514         0.018933         0.210689
 C         1.968119        -0.068170         1.724987
 C         3.483715        -0.090429         1.224985
 O         4.042898         1.276767         1.172287
 C         3.247498         1.938185         0.200547
 C         2.537593         0.723995        -0.570506
 C         3.240180        -0.570989        -0.259492
 O         1.989047        -1.337709        -0.319880
 H        -0.211781         1.321250        -0.591632
 H        -0.347705        -0.388126        -0.968001
 H        -0.740744         0.203438         0.684061
 H         1.753383         0.631590         2.598354
 H         1.880106        -1.078865         2.018417
 H         4.201040        -0.729703         1.677356
 H         2.568987         2.743290         0.546986
 H         3.865177         2.539222        -0.519909
 H         2.481861         0.862067        -1.617518
 H         4.055379        -1.036412        -0.833138
