19
Iteration:  3933
 C        -0.142772         0.036327        -0.135256
 C         1.425503         0.066860         0.263079
 C         1.897059         0.016426         1.676024
 C         3.432964        -0.122070         1.253395
 O         4.163557         1.207867         1.214881
 C         3.504701         1.889616         0.063437
 C         2.508876         0.852606        -0.446522
 C         3.222267        -0.445501        -0.289719
 O         1.979318        -1.207537        -0.323685
 H        -0.787256         0.459870         0.673182
 H        -0.577351         0.714989        -0.986495
 H        -0.518128        -0.990464        -0.255598
 H         1.758097         0.915252         2.482178
 H         1.587444        -0.950335         2.147083
 H         4.167801        -0.862417         1.669821
 H         3.063071         2.874775         0.312590
 H         4.261292         2.060910        -0.774098
 H         2.239508         1.102373        -1.529957
 H         4.046041        -0.795014        -0.998127
