19
Iteration:  3834
 C        -0.027587         0.274453        -0.063480
 C         1.473801         0.078524         0.251324
 C         2.020287        -0.106111         1.643997
 C         3.484056        -0.124163         1.304016
 O         4.052785         1.207570         1.212164
 C         3.277412         1.865549         0.148983
 C         2.559227         0.753043        -0.608432
 C         3.265097        -0.515975        -0.286912
 O         1.942356        -1.187635        -0.351500
 H        -0.162119         1.210441        -0.525662
 H        -0.215229        -0.446828        -0.878820
 H        -0.795975         0.136056         0.631887
 H         1.705703         0.608313         2.446780
 H         1.666205        -1.066198         2.037860
 H         4.230040        -0.573978         1.825419
 H         2.484357         2.521784         0.488519
 H         3.878476         2.479951        -0.553771
 H         2.254306         1.121112        -1.598994
 H         4.112521        -0.950387        -0.708250
