19
Iteration:  3094charge 0 multiplicity 1
 C        -0.055999         0.308089        -0.043645
 C         1.449615        -0.032302         0.187717
 C         1.994271        -0.034219         1.602499
 C         3.512061        -0.132043         1.255316
 O         4.009816         1.181191         1.229741
 C         3.221110         1.897934         0.140818
 C         2.566837         0.764454        -0.668716
 C         3.349543        -0.498792        -0.236249
 O         1.993774        -1.252403        -0.274009
 H        -0.241496         1.358890        -0.077383
 H        -0.311228        -0.038195        -1.090829
 H        -0.741599        -0.039553         0.802977
 H         1.962761         0.974147         2.009509
 H         1.477243        -0.800248         2.083346
 H         4.111933        -0.630820         2.042445
 H         2.684345         2.756447         0.586249
 H         3.948281         2.447497        -0.453298
 H         2.232983         0.999455        -1.597034
 H         4.077974        -1.110139        -0.841761
