19
Iteration:  4373
 C         0.034920         0.365679        -0.108420
 C         1.481759         0.035155         0.287479
 C         2.030658        -0.108404         1.693487
 C         3.553705        -0.064852         1.214373
 O         3.954214         1.278681         1.150278
 C         3.280553         1.896087        -0.004779
 C         2.519026         0.720436        -0.570980
 C         3.253099        -0.566664        -0.212722
 O         1.960999        -1.279194        -0.201335
 H        -0.269210        -0.039192        -1.094367
 H        -0.639691        -0.174025         0.591964
 H        -0.297273         1.469293        -0.149571
 H         1.728127         0.777045         2.269050
 H         1.756825        -1.006312         2.164137
 H         4.089102        -0.746487         1.904458
 H         2.730974         2.762958         0.335412
 H         4.027665         2.121785        -0.805447
 H         2.071853         0.829915        -1.595386
 H         4.020045        -1.251161        -0.771543
