19
Iteration:  2878
 C        -0.124001         0.254473        -0.003724
 C         1.356981         0.038663         0.231013
 C         1.985041        -0.021980         1.630769
 C         3.428519        -0.111928         1.305806
 O         4.050235         1.243525         1.200986
 C         3.366876         1.846353         0.080675
 C         2.603388         0.764742        -0.718423
 C         3.329733        -0.474118        -0.223646
 O         2.027924        -1.269910        -0.286531
 H        -0.593392         0.833387         0.692633
 H        -0.305005         0.796154        -0.975597
 H        -0.677130        -0.689016        -0.077837
 H         1.882759         1.021794         2.119642
 H         1.595068        -0.822351         2.231447
 H         4.010799        -0.784900         1.996620
 H         2.603479         2.589567         0.498470
 H         4.162551         2.290329        -0.560110
 H         2.314364         0.718795        -1.741600
 H         4.107229        -1.022894        -0.835550
