19
Iteration:  1016charge 0 multiplicity 1
 C        -0.139613         0.003871        -0.005577
 C         1.366150         0.066472         0.157234
 C         1.888136         0.019601         1.640747
 C         3.398145        -0.066030         1.264837
 O         4.160950         1.172174         1.264748
 C         3.479773         1.874588         0.242692
 C         2.676959         0.859752        -0.638890
 C         3.273561        -0.486586        -0.294054
 O         1.925440        -1.139636        -0.421439
 H        -0.516288         0.575609        -0.885513
 H        -0.271096        -1.005962        -0.319884
 H        -0.683809         0.363321         0.903355
 H         1.652813         0.925645         2.256020
 H         1.502939        -0.874660         2.137236
 H         3.936847        -0.805103         1.800351
 H         2.843277         2.666232         0.684869
 H         4.243726         2.271362        -0.488900
 H         2.267955         1.218810        -1.630557
 H         4.034522        -1.047329        -0.748357
