19
Iteration:   522
 C        -0.082677         0.115235        -0.178349
 C         1.369924         0.038073         0.147959
 C         2.042992        -0.210106         1.682480
 C         3.531954        -0.222963         1.120085
 O         4.166177         1.004006         1.267626
 C         3.296452         1.885833         0.642720
 C         2.429481         1.027373        -0.396169
 C         3.246190        -0.271662        -0.464067
 O         2.001019        -1.089081        -0.603465
 H        -0.195943         0.165349        -1.277933
 H        -0.637905        -0.825377         0.145315
 H        -0.602308         1.034089         0.191988
 H         1.679256         0.645979         2.282575
 H         1.750480        -1.071251         2.160802
 H         4.104453        -1.055769         1.528833
 H         2.683636         2.389627         1.414375
 H         3.977657         2.674184         0.261664
 H         2.051470         1.541397        -1.365120
 H         4.213858        -0.417185        -1.026502
