19
Iteration:  1457
 C        -0.023630         0.310556         0.046743
 C         1.472349        -0.010036         0.151347
 C         1.935284        -0.052572         1.628518
 C         3.409722        -0.123048         1.250912
 O         3.919844         1.223702         1.242014
 C         3.351019         1.925360         0.085439
 C         2.544719         0.760820        -0.557264
 C         3.315582        -0.540666        -0.327340
 O         2.080122        -1.262062        -0.303999
 H         0.012420         1.371012        -0.105479
 H        -0.509899         0.001775        -0.912609
 H        -0.565309         0.205254         0.866558
 H         1.942800         0.753017         2.266671
 H         1.526563        -1.021688         2.024185
 H         4.100786        -0.702856         1.837907
 H         2.728242         2.760496         0.382414
 H         4.145861         2.147752        -0.665234
 H         2.208782         0.971820        -1.587459
 H         4.054466        -1.058317        -0.845477
