19
Iteration:  2066charge 0 multiplicity 1
 C         0.022861         0.325499        -0.098686
 C         1.461686        -0.023663         0.190570
 C         1.966663        -0.057183         1.701386
 C         3.527255        -0.183675         1.281627
 O         4.070509         1.278367         1.185261
 C         3.254207         1.956108         0.076430
 C         2.548005         0.792112        -0.577535
 C         3.243394        -0.587574        -0.228283
 O         1.966371        -1.285323        -0.332292
 H        -0.498226         0.811820         0.829863
 H        -0.137324         1.047685        -1.007388
 H        -0.559826        -0.560321        -0.260339
 H         1.769811         0.847731         2.216570
 H         1.515855        -0.912763         2.257711
 H         4.100512        -0.747826         2.020359
 H         2.422081         2.542780         0.579314
 H         3.824847         2.684481        -0.406616
 H         2.389518         0.966118        -1.646497
 H         4.004818        -1.168543        -0.771741
