19
Iteration:   765
 C        -0.022661         0.381128         0.016351
 C         1.452562         0.007239         0.193347
 C         2.014655        -0.262106         1.533443
 C         3.538070        -0.169459         1.147442
 O         3.908545         1.167478         1.368902
 C         3.233197         1.927792         0.344421
 C         2.520873         0.848363        -0.528752
 C         3.359762        -0.461795        -0.324919
 O         2.060156        -1.224671        -0.547757
 H        -0.223717         1.064822        -0.811744
 H        -0.774634        -0.348648        -0.179899
 H        -0.367609         1.088424         0.854483
 H         1.797835         0.602181         2.200993
 H         1.682135        -1.203396         1.950250
 H         4.200709        -0.822963         1.835319
 H         2.485052         2.493385         0.870651
 H         3.855226         2.577669        -0.274874
 H         2.222846         1.071415        -1.585215
 H         4.173901        -0.804580        -0.970455
