19
Iteration:  3650charge 0 multiplicity 1
 C        -0.139103         0.102362         0.004009
 C         1.406258         0.023021         0.186080
 C         2.009039         0.078532         1.629563
 C         3.401880        -0.201074         1.244975
 O         4.041180         1.136958         1.276302
 C         3.377055         1.892603         0.237751
 C         2.620548         0.852702        -0.648024
 C         3.257194        -0.445393        -0.313382
 O         2.033147        -1.196418        -0.410630
 H        -0.384769        -0.090516        -1.055225
 H        -0.725664        -0.608055         0.712938
 H        -0.411105         1.154787         0.116551
 H         1.845518         1.078824         2.088945
 H         1.551818        -0.693127         2.129984
 H         4.030363        -0.791288         1.837316
 H         2.753422         2.723887         0.646552
 H         4.234924         2.410860        -0.264591
 H         2.358320         1.104227        -1.703708
 H         4.071557        -0.911744        -0.845111
