19
Iteration:  4371charge 0 multiplicity 1
 C         0.024642         0.370153        -0.101282
 C         1.480945         0.023844         0.287109
 C         2.045193        -0.113309         1.692756
 C         3.540083        -0.057415         1.213126
 O         3.947006         1.276312         1.159071
 C         3.281970         1.892220        -0.001837
 C         2.513273         0.717804        -0.585777
 C         3.253825        -0.565287        -0.227198
 O         1.966197        -1.278960        -0.196563
 H        -0.253529        -0.078032        -1.096415
 H        -0.638311        -0.085818         0.572076
 H        -0.233090         1.448082        -0.173493
 H         1.774547         0.835995         2.260766
 H         1.707426        -1.017481         2.204253
 H         4.120238        -0.728897         1.894141
 H         2.780728         2.801192         0.342405
 H         4.035162         2.096128        -0.765598
 H         2.117223         0.788112        -1.570808
 H         4.004239        -1.169239        -0.777248
