19
Iteration:  1535
 C        -0.068658         0.136871        -0.139344
 C         1.414536         0.044450         0.249131
 C         1.930531         0.121574         1.661413
 C         3.455984        -0.129303         1.213213
 O         4.146886         1.110846         1.155569
 C         3.293214         1.829569         0.222841
 C         2.508203         0.868232        -0.545228
 C         3.229409        -0.497112        -0.272887
 O         2.049530        -1.230028        -0.304905
 H        -0.209277         1.234213        -0.099005
 H        -0.259419        -0.260047        -1.126570
 H        -0.617449        -0.391082         0.508390
 H         1.767562         1.031566         2.160844
 H         1.579475        -0.609977         2.481139
 H         4.048835        -0.833465         1.811745
 H         2.669842         2.688758         0.581229
 H         4.038179         2.401509        -0.475823
 H         2.313208         1.182665        -1.665985
 H         4.077056        -0.970653        -0.848051
