19
Iteration:  2440
 C        -0.039674         0.357241         0.069939
 C         1.439445         0.079145         0.163003
 C         1.961347        -0.106391         1.622274
 C         3.509595        -0.090313         1.252955
 O         3.903867         1.261302         1.188931
 C         3.291887         1.882026         0.033401
 C         2.614677         0.714838        -0.588678
 C         3.335203        -0.571790        -0.213146
 O         2.003732        -1.258897        -0.310097
 H        -0.185068         1.425407         0.177008
 H        -0.212402         0.304511        -0.956138
 H        -0.776130        -0.156102         0.692538
 H         1.629653         0.521246         2.431170
 H         1.571739        -1.071202         1.927751
 H         4.178799        -0.662774         1.935762
 H         2.665358         2.590779         0.388504
 H         4.049715         2.259767        -0.638878
 H         2.692723         0.668905        -1.713272
 H         4.216307        -1.031916        -0.775107
