19
Iteration:  2795
 C        -0.009783         0.197818        -0.017435
 C         1.447153        -0.047232         0.235586
 C         1.972638         0.078743         1.575075
 C         3.454906        -0.087353         1.289965
 O         4.077063         1.169544         1.158087
 C         3.283739         1.937729         0.176973
 C         2.605467         0.828046        -0.633148
 C         3.213268        -0.515797        -0.264562
 O         1.992082        -1.312584        -0.314357
 H         0.012624         1.372129        -0.040150
 H        -0.317750        -0.204698        -0.992312
 H        -0.726789        -0.033878         0.747918
 H         1.556971         0.949671         2.028484
 H         1.652719        -0.692096         2.307406
 H         3.962066        -0.778470         1.946187
 H         2.534376         2.484898         0.656539
 H         3.855189         2.707567        -0.285705
 H         2.517713         0.908552        -1.804975
 H         3.948213        -1.072062        -0.807440
