19
Iteration:  3701
 C        -0.051141         0.421716        -0.150579
 C         1.424287         0.000962         0.266038
 C         1.951911        -0.226146         1.765924
 C         3.511872        -0.129263         1.207403
 O         4.065654         1.225688         1.222443
 C         3.203126         1.902230         0.172696
 C         2.545432         0.800611        -0.535338
 C         3.293710        -0.528106        -0.271974
 O         2.053271        -1.258978        -0.436698
 H        -0.553425        -0.204071        -0.858602
 H        -0.594178         0.313734         0.773637
 H        -0.124063         1.476582        -0.431290
 H         1.858856         0.677047         2.349797
 H         1.572691        -1.325778         2.087135
 H         4.381844        -0.584349         1.841058
 H         2.512296         2.611607         0.645057
 H         3.851605         2.593983        -0.424131
 H         2.103627         1.050256        -1.542985
 H         4.246817        -0.922680        -0.856174
