19
Iteration:  3495charge 0 multiplicity 1
 C        -0.038592         0.207131        -0.149648
 C         1.398670         0.059448         0.243367
 C         2.016792         0.031353         1.633886
 C         3.508705        -0.158698         1.257701
 O         4.018470         1.140846         1.206621
 C         3.340165         1.942733         0.118685
 C         2.500837         0.791565        -0.517314
 C         3.223177        -0.487204        -0.281424
 O         2.001810        -1.249185        -0.254760
 H        -0.357538         1.243257        -0.025317
 H        -0.084596        -0.003663        -1.231485
 H        -0.612628        -0.611431         0.331932
 H         1.817334         0.964324         2.054293
 H         1.635001        -0.740328         2.274477
 H         4.173783        -0.882004         1.819267
 H         2.947059         2.852047         0.576112
 H         4.210166         2.261408        -0.488486
 H         2.265494         0.965328        -1.566643
 H         3.987033        -0.891122        -1.022958
