19
Iteration:  2365charge 0 multiplicity 1
 C        -0.166876         0.143017        -0.098631
 C         1.342229         0.044622         0.164860
 C         1.958217         0.101571         1.619392
 C         3.547244        -0.094472         1.218065
 O         4.155866         1.125120         1.097046
 C         3.318832         1.915965         0.253430
 C         2.669407         0.810707        -0.627244
 C         3.244589        -0.505013        -0.212550
 O         1.974932        -1.242792        -0.251568
 H        -0.521492         1.139461         0.099718
 H        -0.398790        -0.079442        -1.134471
 H        -0.712432        -0.601668         0.586652
 H         1.608372         0.903829         2.395911
 H         1.601819        -0.784866         2.112338
 H         4.057046        -0.658362         2.031882
 H         2.549220         2.554273         0.890989
 H         4.045872         2.527402        -0.264803
 H         2.386631         1.015692        -1.654429
 H         4.040873        -1.068646        -0.797741
