19
Iteration:  4586charge 0 multiplicity 1
 C        -0.127614         0.071841        -0.159984
 C         1.360927         0.039490         0.314851
 C         1.999466         0.169794         1.683469
 C         3.535970        -0.071047         1.245467
 O         4.119132         1.209256         1.140339
 C         3.475316         1.841387        -0.022691
 C         2.490106         0.789091        -0.641335
 C         3.219962        -0.533616        -0.224167
 O         1.944758        -1.260777        -0.107965
 H        -0.816476         0.102777         0.803993
 H        -0.303837         1.011966        -0.807332
 H        -0.440111        -0.837364        -0.675498
 H         1.947447         1.217678         1.931699
 H         1.425489        -0.436608         2.388944
 H         4.117791        -0.761165         2.009921
 H         2.921128         2.782236         0.147451
 H         4.387530         2.023817        -0.641696
 H         1.988383         1.013061        -1.559818
 H         4.009364        -0.914461        -0.847969
