19
Iteration:  4647charge 0 multiplicity 1
 C        -0.061806         0.237781        -0.008507
 C         1.449681         0.020927         0.172096
 C         1.950787         0.164524         1.636008
 C         3.452681         0.015071         1.295116
 O         4.126374         1.202935         1.050657
 C         3.278765         1.885959        -0.022414
 C         2.678893         0.694038        -0.654260
 C         3.209429        -0.621650        -0.079035
 O         1.954729        -1.337723        -0.201406
 H        -0.573763        -0.515826         0.489692
 H        -0.346522         1.134104         0.583215
 H        -0.434601         0.319354        -1.012997
 H         1.590651         1.098920         2.109069
 H         1.587322        -0.695651         2.268119
 H         3.998006        -0.485104         2.012788
 H         2.534451         2.609242         0.410485
 H         4.045554         2.364405        -0.651663
 H         2.515073         0.808180        -1.735552
 H         3.996112        -1.182950        -0.525390
