19
Iteration:  1349charge 0 multiplicity 1
 C        -0.044997         0.010089        -0.112401
 C         1.379339         0.088416         0.229549
 C         1.895444         0.181449         1.742619
 C         3.370014        -0.121775         1.255818
 O         4.232584         1.115472         1.125294
 C         3.420296         1.904188         0.182625
 C         2.568771         0.844100        -0.614718
 C         3.208309        -0.484286        -0.242313
 O         1.964246        -1.205797        -0.347201
 H        -0.563812         0.531787         0.707145
 H        -0.459380         0.405609        -1.127239
 H        -0.376399        -1.107307        -0.215479
 H         1.786881         1.009152         2.294103
 H         1.608440        -0.629492         2.439530
 H         3.923036        -0.792935         1.904191
 H         2.795735         2.547756         0.775224
 H         4.022951         2.586988        -0.516238
 H         2.304885         0.908866        -1.671309
 H         3.954487        -1.015772        -0.730153
