19
Iteration:  2139charge 0 multiplicity 1
 C        -0.091709         0.180120        -0.015776
 C         1.466132         0.064801         0.150437
 C         1.945344        -0.026333         1.667034
 C         3.448308        -0.141859         1.355595
 O         4.048946         1.207911         1.225318
 C         3.350934         1.888662         0.106819
 C         2.597976         0.781583        -0.617809
 C         3.259096        -0.543518        -0.265916
 O         1.997431        -1.174711        -0.390406
 H        -0.355458         1.179883        -0.117073
 H        -0.476130        -0.346577        -0.906280
 H        -0.618730        -0.159421         0.908621
 H         1.682947         0.937693         2.236538
 H         1.481939        -0.852020         2.108022
 H         4.276456        -0.672797         1.936857
 H         2.727753         2.666493         0.518382
 H         4.165583         2.388636        -0.567320
 H         2.231581         0.928427        -1.575937
 H         4.137212        -0.980071        -0.859514
