19
Iteration:  1732
 C        -0.074287         0.320497         0.029640
 C         1.504451         0.027793         0.194793
 C         1.997705        -0.208515         1.632153
 C         3.527350        -0.073815         1.338029
 O         3.913984         1.249019         1.213282
 C         3.340511         1.921768         0.057211
 C         2.583779         0.776238        -0.569962
 C         3.331028        -0.579976        -0.231608
 O         1.946706        -1.184067        -0.422685
 H        -0.175406         1.415706        -0.286374
 H        -0.415735        -0.313733        -0.828943
 H        -0.715381         0.176873         0.922941
 H         1.731686         0.580046         2.317724
 H         1.612623        -1.217800         1.932243
 H         4.226698        -0.511332         2.042029
 H         2.661153         2.653966         0.460800
 H         4.138461         2.294029        -0.474360
 H         2.265903         0.878177        -1.711240
 H         4.076846        -1.137741        -0.821692
