19
Iteration:  2725charge 0 multiplicity 1
 C         0.016503         0.289926        -0.030827
 C         1.422030        -0.001953         0.222150
 C         1.979930        -0.055598         1.627893
 C         3.511083        -0.106694         1.323459
 O         3.986289         1.287354         1.202433
 C         3.337697         1.875688         0.041491
 C         2.527485         0.775259        -0.567165
 C         3.242456        -0.593560        -0.243277
 O         1.997997        -1.258275        -0.341627
 H        -0.273193         1.177087         0.466469
 H        -0.164602         0.310569        -1.178957
 H        -0.665172        -0.559113         0.335034
 H         1.646710         0.793163         2.283006
 H         1.670086        -0.887563         2.213742
 H         4.154152        -0.509223         2.138038
 H         2.830535         2.792075         0.232818
 H         4.111027         2.145437        -0.669046
 H         2.155753         0.981922        -1.517459
 H         4.045341        -0.845768        -0.953014
