19
Iteration:  1079
 C         0.019967         0.330036        -0.097854
 C         1.465284        -0.032980         0.204343
 C         2.009948        -0.075742         1.611149
 C         3.475539        -0.141015         1.243331
 O         4.020627         1.221810         1.197100
 C         3.281887         1.981640         0.229211
 C         2.534729         0.806384        -0.603294
 C         3.244564        -0.550393        -0.232833
 O         1.978155        -1.340452        -0.331052
 H        -0.091486         1.332882        -0.569022
 H        -0.315103        -0.212551        -0.930764
 H        -0.882832         0.343866         0.688552
 H         1.918347         0.894942         2.183789
 H         1.600405        -0.904898         2.157097
 H         4.202189        -0.687267         1.882221
 H         2.619840         2.705579         0.680036
 H         3.974910         2.662124        -0.228781
 H         2.225783         0.946697        -1.647667
 H         4.091247        -0.944964        -0.713648
