19
Iteration:   555charge 0 multiplicity 1
 C        -0.131675         0.114843        -0.040207
 C         1.424749         0.136044         0.197830
 C         1.935073        -0.265273         1.600289
 C         3.499377        -0.247299         1.153408
 O         4.089669         1.030123         1.316623
 C         3.336328         1.945000         0.533553
 C         2.534295         0.983659        -0.457629
 C         3.285594        -0.354587        -0.455556
 O         2.043244        -1.047119        -0.632606
 H        -0.551601         0.911391        -0.652468
 H        -0.161189        -0.804629        -0.657970
 H        -0.640515        -0.000939         0.989458
 H         1.634441         0.573908         2.281899
 H         1.562429        -1.158352         1.988502
 H         4.119511        -1.003104         1.627795
 H         2.595343         2.463332         1.168255
 H         3.995480         2.718748         0.066509
 H         2.239183         1.460463        -1.444786
 H         4.186807        -0.571815        -1.092642
