19
Iteration:  4878charge 0 multiplicity 1
 C        -0.007066         0.333064         0.021279
 C         1.456006         0.032361         0.229287
 C         1.909937         0.116516         1.621357
 C         3.477414         0.042672         1.339498
 O         4.017726         1.333342         1.054058
 C         3.369750         1.856170        -0.261837
 C         2.603225         0.625377        -0.622051
 C         3.244358        -0.747648        -0.043646
 O         1.948156        -1.335308        -0.093719
 H        -0.215890         0.676203        -1.051775
 H        -0.596274        -0.642898         0.079732
 H        -0.444090         1.034954         0.691599
 H         1.846633         1.036597         2.192961
 H         1.638005        -0.821318         2.221177
 H         4.200828        -0.349711         2.151971
 H         2.754614         2.714654         0.046058
 H         4.122295         2.075591        -0.996579
 H         2.334985         0.527798        -1.700464
 H         3.965758        -1.259485        -0.793473
