19
Iteration:  3484
 C        -0.055551         0.202295        -0.178065
 C         1.378118         0.090071         0.267906
 C         1.978903         0.102548         1.686295
 C         3.464129        -0.117361         1.175090
 O         4.072021         1.133052         1.173637
 C         3.365177         1.815572         0.206169
 C         2.474578         0.906379        -0.595321
 C         3.275961        -0.506241        -0.230840
 O         2.041107        -1.308319        -0.274589
 H        -0.682009         0.948229         0.304339
 H        -0.113225         0.250208        -1.271791
 H        -0.663356        -0.672366         0.176754
 H         2.011628         0.962188         2.270179
 H         1.564221        -0.721513         2.236180
 H         4.119632        -0.705553         1.879558
 H         2.788062         2.646084         0.614957
 H         4.023257         2.201008        -0.597952
 H         2.122474         1.059740        -1.601574
 H         4.152166        -1.022075        -0.760738
