19
Iteration:   241
 C        -0.059182         0.182880         0.017290
 C         1.462529         0.058070         0.146757
 C         2.000050        -0.460840         1.465687
 C         3.557571        -0.351758         1.076248
 O         4.064055         0.976433         1.419915
 C         3.147331         1.912405         0.783518
 C         2.527490         1.108662        -0.318797
 C         3.259866        -0.189331        -0.581033
 O         2.075021        -0.931389        -0.835969
 H        -0.433067        -0.801772         0.322478
 H        -0.422274         0.872751         0.827247
 H        -0.368694         0.500657        -1.054341
 H         1.690941         0.081033         2.413346
 H         1.629670        -1.536128         1.491631
 H         4.175560        -1.241650         1.386227
 H         2.401923         2.238531         1.468430
 H         3.780708         2.869174         0.506015
 H         2.099140         1.697390        -1.016669
 H         4.186166        -0.452573        -1.172280
