19
Iteration:  2332
 C        -0.061861         0.045685        -0.077883
 C         1.406939         0.057086         0.202364
 C         1.913616         0.214711         1.678156
 C         3.475332        -0.114131         1.300651
 O         4.137582         1.092533         1.133718
 C         3.376448         1.860365         0.169710
 C         2.557644         0.843237        -0.553798
 C         3.198759        -0.504478        -0.249833
 O         1.990426        -1.198177        -0.374162
 H        -0.579091         0.667184         0.677312
 H        -0.381895         0.326273        -1.061940
 H        -0.470462        -1.007641         0.054853
 H         1.858172         1.242589         2.182167
 H         1.566629        -0.649912         2.238348
 H         3.966628        -0.812164         2.043449
 H         2.892876         2.885345         0.537841
 H         4.083228         2.221053        -0.575137
 H         2.213733         1.077130        -1.586314
 H         4.108843        -1.027233        -0.692471
