19
Iteration:  2974
 C        -0.065501         0.080234        -0.092585
 C         1.365109         0.046111         0.228942
 C         1.932960         0.007325         1.697186
 C         3.480929        -0.077439         1.301451
 O         4.127184         1.182328         1.153479
 C         3.387951         1.886642         0.159601
 C         2.553423         0.823853        -0.604778
 C         3.200658        -0.516124        -0.242377
 O         2.007280        -1.158284        -0.344209
 H        -0.341818         1.052980        -0.574849
 H        -0.441896        -0.636040        -0.890541
 H        -0.785583         0.002700         0.778018
 H         1.667212         0.911290         2.306851
 H         1.617596        -0.941752         2.154663
 H         4.004969        -0.759893         2.049126
 H         2.791235         2.730277         0.523194
 H         4.102207         2.341477        -0.628484
 H         2.546034         0.872530        -1.637006
 H         4.131461        -0.899774        -0.790710
