19
Iteration:  4575
 C        -0.111770         0.163118        -0.144142
 C         1.367284         0.052090         0.237346
 C         2.000512         0.145120         1.718749
 C         3.507943        -0.031673         1.310441
 O         4.115002         1.216795         1.104576
 C         3.382830         1.825566        -0.063857
 C         2.518622         0.765447        -0.556279
 C         3.193080        -0.569493        -0.218848
 O         1.986006        -1.283062        -0.141208
 H        -0.833956         0.327738         0.763702
 H        -0.368052         0.988879        -0.919674
 H        -0.310676        -0.774015        -0.647615
 H         1.864423         1.073959         2.240473
 H         1.740064        -0.656781         2.424885
 H         4.300135        -0.717704         1.814054
 H         2.934867         2.755786         0.333462
 H         4.075384         2.114579        -0.905401
 H         2.399808         0.913110        -1.608895
 H         3.985083        -1.104760        -0.696182
