19
Iteration:  1445
 C        -0.044254         0.431995         0.038379
 C         1.408082        -0.024793         0.234470
 C         1.981687        -0.141093         1.612190
 C         3.484059        -0.072478         1.237480
 O         3.880404         1.280479         1.267916
 C         3.365006         1.882130         0.079408
 C         2.567892         0.729061        -0.667496
 C         3.356624        -0.552199        -0.306879
 O         2.036863        -1.320722        -0.320812
 H        -0.050528         1.463069         0.245463
 H        -0.524051         0.153770        -0.935364
 H        -0.584968        -0.053949         0.710974
 H         1.577713         0.676126         2.190681
 H         1.646915        -1.031620         2.184038
 H         4.098119        -0.604719         1.968411
 H         2.778659         2.783490         0.335416
 H         4.246898         2.321998        -0.405706
 H         2.234156         0.822850        -1.675136
 H         4.175478        -0.860842        -0.896185
