19
Iteration:  4068charge 0 multiplicity 1
 C        -0.058383         0.213902        -0.003420
 C         1.446174         0.127283         0.238117
 C         2.001475        -0.105374         1.596197
 C         3.497265        -0.123263         1.287784
 O         4.011428         1.197643         1.219717
 C         3.325733         1.931030         0.131260
 C         2.622106         0.866013        -0.614453
 C         3.241668        -0.591039        -0.250255
 O         1.953343        -1.201825        -0.399194
 H        -0.431753         1.224538         0.044659
 H        -0.185171        -0.383719        -0.830746
 H        -0.515435        -0.357797         0.842976
 H         1.678858         0.601775         2.466116
 H         1.685725        -1.127039         1.823504
 H         4.126360        -0.689018         1.925264
 H         2.647460         2.675133         0.556286
 H         4.029628         2.514739        -0.486040
 H         2.398218         0.924875        -1.617025
 H         3.923525        -1.071372        -0.872027
