19
Iteration:   828
 C        -0.090157         0.247843        -0.171929
 C         1.385292         0.062025         0.175675
 C         2.012945        -0.162158         1.698315
 C         3.486949        -0.164964         1.156266
 O         4.100973         1.119483         1.288059
 C         3.304125         1.921166         0.363288
 C         2.476357         0.899615        -0.511027
 C         3.230747        -0.428295        -0.348235
 O         2.063266        -1.212734        -0.472068
 H        -0.419382         0.984465         0.499270
 H        -0.376978         0.313601        -1.162235
 H        -0.397054        -0.774903         0.197174
 H         1.834379         0.907352         2.258789
 H         1.563124        -0.941254         2.270204
 H         4.282700        -0.784902         1.721396
 H         2.618127         2.517303         1.034489
 H         4.026556         2.611848        -0.167296
 H         2.211662         1.119907        -1.520378
 H         4.062796        -0.902860        -0.933919
