19
Iteration:   298
 C         0.020205         0.315102         0.103429
 C         1.431441        -0.051636         0.149409
 C         2.088541        -0.582481         1.444997
 C         3.538113        -0.313541         1.050300
 O         3.885639         0.994644         1.516393
 C         3.192714         1.960740         0.675919
 C         2.501246         1.072459        -0.420534
 C         3.261510        -0.169689        -0.539774
 O         2.098258        -0.981553        -0.780071
 H        -0.372504         0.409674        -0.875008
 H        -0.694283        -0.285530         0.682915
 H        -0.121383         1.387026         0.509658
 H         1.831739        -0.127359         2.369169
 H         1.785486        -1.671491         1.539580
 H         4.310557        -1.030495         1.302645
 H         2.527528         2.626121         1.153427
 H         3.922796         2.628761         0.074675
 H         2.201103         1.422237        -1.338025
 H         4.166472        -0.277178        -1.165136
