19
Iteration:  2323
 C        -0.149653         0.081907        -0.065324
 C         1.417237         0.061837         0.256174
 C         1.981593         0.134888         1.661287
 C         3.435413        -0.089471         1.315383
 O         4.054528         1.100057         1.166141
 C         3.446101         1.867048         0.084526
 C         2.553592         0.807747        -0.550401
 C         3.288211        -0.490692        -0.251450
 O         1.968582        -1.190778        -0.370986
 H        -0.788863         0.596955         0.635746
 H        -0.266317         0.513331        -1.114186
 H        -0.431367        -1.048586         0.000468
 H         1.783250         1.219479         2.104223
 H         1.563830        -0.501830         2.393408
 H         4.193342        -0.753307         1.770310
 H         2.786822         2.644641         0.610272
 H         4.268820         2.257146        -0.513722
 H         2.384580         0.937348        -1.543160
 H         4.171135        -0.831339        -0.861864
