19
Iteration:   894
 C        -0.125288         0.132369         0.008061
 C         1.400199        -0.015031         0.106133
 C         1.937138        -0.083752         1.562862
 C         3.451396        -0.144175         1.259366
 O         4.021202         1.109921         1.295896
 C         3.396811         1.933101         0.287185
 C         2.573079         0.897724        -0.583792
 C         3.280653        -0.455064        -0.291952
 O         2.038442        -1.123352        -0.456553
 H        -0.586347        -0.678506         0.513022
 H        -0.528020         0.970793         0.520234
 H        -0.397988         0.227847        -1.106240
 H         1.893402         0.910899         2.183512
 H         1.653308        -0.908331         2.158550
 H         4.091125        -0.926629         1.854447
 H         2.773833         2.777843         0.735928
 H         4.197428         2.495484        -0.295181
 H         2.566453         1.089739        -1.667394
 H         4.119299        -0.864121        -0.897389
