19
Iteration:  3253charge 0 multiplicity 1
 C        -0.038131         0.297827        -0.071047
 C         1.408874         0.075749         0.247361
 C         1.964959         0.081847         1.664115
 C         3.457071        -0.027133         1.249843
 O         3.987196         1.251504         1.216031
 C         3.335898         1.856738         0.023935
 C         2.582957         0.628082        -0.576797
 C         3.279433        -0.624795        -0.256675
 O         2.041160        -1.297839        -0.256199
 H        -0.633946        -0.678424        -0.196381
 H        -0.301721         0.930452         0.766484
 H        -0.246013         0.841460        -1.005524
 H         1.804750         1.045293         2.076628
 H         1.429350        -0.737403         2.277822
 H         4.076628        -0.666647         1.925875
 H         2.662734         2.703145         0.195929
 H         4.159314         2.158553        -0.680006
 H         2.271082         0.808207        -1.662715
 H         4.138520        -1.063092        -0.811314
