19
Iteration:   851charge 0 multiplicity 1
 C        -0.122340         0.015829        -0.085347
 C         1.437405         0.044680         0.205867
 C         1.991745        -0.078391         1.592287
 C         3.400929        -0.225477         1.195530
 O         4.101555         1.088751         1.276025
 C         3.393995         1.939218         0.310372
 C         2.560962         0.968996        -0.499864
 C         3.249908        -0.385778        -0.296276
 O         1.972531        -1.088694        -0.440572
 H        -0.665557         0.306016         0.765904
 H        -0.216193         0.748176        -0.785791
 H        -0.320079        -0.957409        -0.611396
 H         1.551614         0.907352         2.200583
 H         1.585672        -1.005981         2.004383
 H         4.107899        -0.842150         1.902664
 H         3.049537         2.853406         0.849715
 H         4.169224         2.210526        -0.501625
 H         2.353939         1.205442        -1.575889
 H         3.953651        -0.710143        -1.077517
