19
Iteration:  4881
 C        -0.027496         0.290708        -0.013560
 C         1.424321         0.026299         0.230106
 C         1.926847         0.136767         1.642124
 C         3.485656         0.026244         1.350231
 O         4.029246         1.330470         1.056490
 C         3.384546         1.872776        -0.260840
 C         2.603480         0.597004        -0.623642
 C         3.241596        -0.720720        -0.060731
 O         1.944349        -1.325291        -0.089776
 H        -0.214523         0.665235        -1.032816
 H        -0.541301        -0.589663         0.135084
 H        -0.376926         1.056654         0.688283
 H         1.824196         1.081783         2.242373
 H         1.640023        -0.729683         2.222925
 H         4.208114        -0.474172         2.150894
 H         2.763499         2.696555         0.046385
 H         4.155129         2.071257        -1.022481
 H         2.281464         0.661970        -1.680750
 H         3.919631        -1.210217        -0.769176
