19
Iteration:  2623
 C         0.045592         0.251058        -0.095388
 C         1.460257         0.026160         0.199481
 C         2.034025        -0.046861         1.645387
 C         3.487860        -0.070575         1.301107
 O         4.021577         1.269894         1.225159
 C         3.281859         1.869426         0.057779
 C         2.513783         0.795793        -0.595284
 C         3.168182        -0.540391        -0.319957
 O         1.979086        -1.315749        -0.219292
 H        -0.039361         1.444028        -0.044983
 H        -0.218252         0.140342        -1.109707
 H        -0.586794        -0.209598         0.687083
 H         1.966485         0.747920         2.346003
 H         1.498607        -1.015740         2.080925
 H         4.044461        -0.732923         1.949376
 H         2.685055         2.517856         0.576071
 H         3.987864         2.379758        -0.681524
 H         2.388397         0.952431        -1.718883
 H         4.067890        -0.846002        -0.884307
