19
Iteration:  4323charge 0 multiplicity 1
 C        -0.032465         0.218569         0.113184
 C         1.420205         0.047945         0.113994
 C         1.940738         0.022495         1.573374
 C         3.482698        -0.095486         1.340793
 O         4.056998         1.253055         1.107944
 C         3.360273         1.890093         0.053613
 C         2.579850         0.738519        -0.637249
 C         3.285197        -0.552663        -0.135600
 O         1.945784        -1.249626        -0.304569
 H        -0.458579        -0.561978        -0.464015
 H        -0.613345         0.374772         1.063024
 H        -0.213400         1.021242        -0.545551
 H         1.710509         0.822249         2.286178
 H         1.560104        -1.014128         1.956164
 H         3.972022        -0.624663         2.147017
 H         2.606370         2.665865         0.382514
 H         4.047317         2.359990        -0.656620
 H         2.590798         0.791751        -1.759484
 H         4.023447        -1.058939        -0.723520
