19
Iteration:  3953charge 0 multiplicity 1
 C        -0.091426         0.034211        -0.020470
 C         1.345088        -0.010850         0.218648
 C         2.019194         0.034444         1.622452
 C         3.467848        -0.068339         1.245892
 O         4.071740         1.115789         1.213080
 C         3.483828         1.882035         0.136024
 C         2.496533         0.908057        -0.586560
 C         3.200015        -0.449770        -0.234468
 O         2.008890        -1.177015        -0.360667
 H        -0.776859         0.566158         0.626935
 H        -0.410822         0.572820        -1.038911
 H        -0.630353        -0.909896        -0.202095
 H         1.817289         1.023708         1.971079
 H         1.541052        -0.490364         2.461905
 H         3.986626        -0.755245         1.875884
 H         3.255000         2.830855         0.663008
 H         4.319991         2.155374        -0.507803
 H         2.238080         1.017555        -1.691339
 H         4.024838        -0.927248        -0.767688
