19
Iteration:  4775
 C        -0.093571        -0.043082        -0.074114
 C         1.344087         0.103344         0.176034
 C         1.985276         0.347111         1.656116
 C         3.428890         0.026852         1.343343
 O         4.236668         1.135221         1.018891
 C         3.447594         1.878568        -0.020486
 C         2.542805         0.715916        -0.638684
 C         3.157924        -0.606062        -0.154438
 O         1.909583        -1.268124        -0.098475
 H        -0.362996        -0.738115        -0.885823
 H        -0.613551        -0.303294         0.895928
 H        -0.561562         1.015203        -0.288112
 H         1.758987         1.354207         2.099100
 H         1.644712        -0.386507         2.346800
 H         3.939992        -0.629836         1.990547
 H         3.042987         2.764086         0.480892
 H         4.131357         2.305403        -0.820429
 H         2.694570         0.857285        -1.721966
 H         3.936560        -1.123490        -0.668280
