19
Iteration:   629
 C        -0.021730         0.383039        -0.002774
 C         1.479475        -0.006910         0.205898
 C         2.000107        -0.388673         1.546481
 C         3.622605        -0.274779         1.139671
 O         3.921875         1.153156         1.327193
 C         3.157751         1.979226         0.408100
 C         2.531453         0.925539        -0.449277
 C         3.339081        -0.387356        -0.385774
 O         2.022775        -1.143475        -0.572011
 H        -0.560752         0.592912         0.952154
 H         0.018480         1.366566        -0.509355
 H        -0.391411        -0.349322        -0.623745
 H         1.811259         0.368867         2.395360
 H         1.503945        -1.451475         1.710596
 H         4.257135        -0.889560         1.723491
 H         2.419268         2.575740         0.927946
 H         3.993273         2.537751        -0.123006
 H         2.073575         1.175081        -1.477179
 H         4.162365        -0.780314        -1.004792
