19
Iteration:  3915charge 0 multiplicity 1
 C        -0.090399         0.130664        -0.096843
 C         1.381147         0.076225         0.255582
 C         1.958721        -0.088785         1.680849
 C         3.475436        -0.100133         1.257954
 O         4.074624         1.181350         1.169429
 C         3.430688         1.910992         0.096130
 C         2.553684         0.861537        -0.644217
 C         3.229648        -0.517079        -0.210878
 O         1.943486        -1.154041        -0.282683
 H        -0.705256         0.549514         0.728267
 H        -0.101542         0.713120        -0.946887
 H        -0.205021        -0.941989        -0.238802
 H         1.795335         0.766777         2.388740
 H         1.775502        -1.098682         2.019997
 H         4.199631        -0.663667         1.965887
 H         2.789773         2.712997         0.492175
 H         4.187561         2.325508        -0.589032
 H         2.355098         1.029874        -1.697897
 H         4.053523        -1.043409        -0.764776
