19
Iteration:  2595charge 0 multiplicity 1
 C        -0.028678         0.433879         0.032006
 C         1.461031         0.000743         0.235799
 C         2.012005        -0.162434         1.654271
 C         3.450017        -0.068520         1.199886
 O         3.879923         1.284106         1.178016
 C         3.264172         1.893388        -0.008816
 C         2.660000         0.704992        -0.566357
 C         3.330269        -0.604205        -0.150470
 O         1.999804        -1.261485        -0.378466
 H        -0.057457         1.474955        -0.023396
 H        -0.418014        -0.023495        -0.925161
 H        -0.604120         0.043243         0.917054
 H         2.027978         0.741763         2.353736
 H         1.689929        -1.025511         2.093307
 H         4.093298        -0.642630         1.877752
 H         2.439078         2.607921         0.493454
 H         3.934133         2.455647        -0.644472
 H         2.477492         0.744138        -1.587400
 H         4.257805        -1.050988        -0.501137
