19
Iteration:  1932charge 0 multiplicity 1
 C         0.040316         0.476757        -0.120529
 C         1.420830        -0.008541         0.221598
 C         2.034862        -0.084025         1.632179
 C         3.580332        -0.106099         1.184221
 O         3.943543         1.271902         1.210286
 C         3.124164         1.829470         0.195356
 C         2.547745         0.683709        -0.513241
 C         3.319068        -0.555089        -0.260632
 O         2.015442        -1.333624        -0.360975
 H         0.278389         1.486379        -0.104653
 H        -0.461326         0.178175        -1.122785
 H        -0.650106         0.244727         0.867803
 H         1.978158         0.875438         2.250577
 H         1.749084        -0.882526         2.239141
 H         4.276173        -0.645176         1.970635
 H         2.339988         2.476579         0.698184
 H         3.785936         2.426046        -0.334512
 H         2.169230         0.972159        -1.496386
 H         4.087659        -0.924803        -1.020589
