19
Iteration:  3077
 C         0.010929         0.354065        -0.112338
 C         1.458112         0.033994         0.200937
 C         1.978854        -0.060826         1.663107
 C         3.498873        -0.109452         1.225261
 O         4.020421         1.285918         1.170311
 C         3.275400         1.929185         0.191860
 C         2.538835         0.746815        -0.525411
 C         3.225130        -0.599178        -0.259659
 O         2.008605        -1.322697        -0.300672
 H        -0.102708         1.419465        -0.514011
 H        -0.437596        -0.311060        -0.911599
 H        -0.703622         0.138868         0.648615
 H         1.748022         0.645447         2.518561
 H         1.819214        -1.103789         2.170924
 H         4.207285        -0.760507         1.679719
 H         2.461545         2.623892         0.541410
 H         3.893471         2.555258        -0.521891
 H         2.490879         0.887157        -1.705692
 H         4.032298        -0.979797        -0.815161
