19
Iteration:  4401
 C        -0.080964         0.225295        -0.034101
 C         1.432223         0.032015         0.186809
 C         1.999523         0.001001         1.693563
 C         3.464384        -0.005822         1.306056
 O         4.132962         1.210078         1.047351
 C         3.286669         1.917652         0.102102
 C         2.623204         0.695939        -0.680871
 C         3.251571        -0.558120        -0.161181
 O         1.942369        -1.239975        -0.252818
 H        -0.335277         0.570791        -1.059288
 H        -0.611726        -0.702782         0.106661
 H        -0.566832         0.909181         0.609318
 H         1.706232         0.984456         2.180580
 H         1.629236        -0.904229         2.333672
 H         3.980816        -0.644295         2.029583
 H         2.619926         2.659306         0.640906
 H         3.929952         2.460514        -0.572072
 H         2.457988         0.623331        -1.710988
 H         3.976914        -1.109728        -0.616366
