19
Iteration:   141
 C        -0.054624         0.303839         0.155791
 C         1.505468         0.031953         0.138278
 C         2.145806        -0.586880         1.382534
 C         3.552489        -0.377086         0.950780
 O         3.909224         0.944661         1.527266
 C         3.081668         1.910553         0.853930
 C         2.470374         1.110410        -0.305676
 C         3.272524        -0.147699        -0.518253
 O         2.125992        -0.933797        -0.961263
 H        -0.078169         1.395589        -0.266941
 H        -0.348521        -0.437440        -0.595115
 H        -0.421392         0.167934         1.149277
 H         1.792081        -0.069905         2.403126
 H         1.881177        -1.613932         1.338203
 H         4.298627        -1.151112         1.064081
 H         2.332103         2.357467         1.491530
 H         3.768760         2.740522         0.368860
 H         2.092539         1.653222        -1.167070
 H         4.141422        -0.093688        -1.135944
