19
Iteration:  1391charge 0 multiplicity 1
 C        -0.057560         0.220100        -0.104233
 C         1.398922         0.057177         0.189099
 C         2.015707         0.027264         1.700898
 C         3.446759        -0.108369         1.230573
 O         4.106936         1.219652         1.173067
 C         3.288176         1.894889         0.143618
 C         2.557174         0.773562        -0.620609
 C         3.217469        -0.558404        -0.246376
 O         2.009258        -1.278068        -0.254102
 H        -0.417097         0.807562         0.726381
 H        -0.130516         0.930820        -1.006852
 H        -0.553344        -0.694551        -0.247495
 H         1.874991         0.876228         2.316755
 H         1.457269        -0.825303         2.127445
 H         4.119977        -0.821983         1.749860
 H         2.554430         2.544841         0.575379
 H         4.084850         2.443733        -0.439454
 H         2.367469         0.949808        -1.649500
 H         4.090903        -0.891191        -0.762789
