19
Iteration:  2975charge 0 multiplicity 1
 C        -0.069754         0.084642        -0.086499
 C         1.361252         0.050154         0.226561
 C         1.940377         0.008126         1.692713
 C         3.481872        -0.087593         1.310883
 O         4.123528         1.181852         1.150801
 C         3.394834         1.890177         0.159370
 C         2.553892         0.831736        -0.605206
 C         3.194559        -0.523409        -0.236468
 O         2.016169        -1.160300        -0.350190
 H        -0.377343         0.997119        -0.581859
 H        -0.442045        -0.645436        -0.890143
 H        -0.785340        -0.009152         0.768665
 H         1.665370         0.932340         2.320382
 H         1.603799        -0.920109         2.144416
 H         3.984927        -0.768676         2.054222
 H         2.807924         2.730799         0.497878
 H         4.084965         2.397242        -0.628365
 H         2.521862         0.860268        -1.645605
 H         4.126359        -0.899548        -0.777661
