19
Iteration:   820charge 0 multiplicity 1
 C        -0.052790         0.270124        -0.130188
 C         1.454369         0.032961         0.160031
 C         2.031543        -0.149291         1.634138
 C         3.492784        -0.194361         1.190159
 O         4.087480         1.141079         1.255664
 C         3.216366         1.943040         0.422373
 C         2.517907         0.889818        -0.523060
 C         3.240318        -0.462213        -0.323241
 O         2.027373        -1.232030        -0.465415
 H        -0.318302         1.302830         0.222768
 H        -0.292042         0.280051        -1.192436
 H        -0.659189        -0.530241         0.428002
 H         1.759051         0.781061         2.288661
 H         1.690361        -1.084817         2.142504
 H         4.203755        -0.902402         1.755641
 H         2.635574         2.627690         1.012288
 H         3.777242         2.629398        -0.233439
 H         2.256719         1.187018        -1.595981
 H         4.013697        -0.738497        -1.030503
