19
Iteration:   774
 C        -0.044113         0.457002         0.004959
 C         1.422348         0.019786         0.127466
 C         2.085341        -0.234056         1.618577
 C         3.507464        -0.230287         1.223159
 O         3.950005         1.168610         1.326936
 C         3.120162         1.942668         0.336641
 C         2.559557         0.860008        -0.515229
 C         3.316068        -0.454679        -0.363228
 O         2.081912        -1.297219        -0.568279
 H        -0.042076         1.168153        -0.745502
 H        -0.563522        -0.373428        -0.351502
 H        -0.404454         0.785839         1.037103
 H         1.809687         0.552938         2.519638
 H         1.655281        -1.187089         1.842424
 H         4.309784        -0.748322         1.867110
 H         2.361950         2.581927         0.718725
 H         3.818736         2.671018        -0.139718
 H         2.511237         1.232191        -1.510147
 H         4.136344        -0.895178        -0.964587
