19
Iteration:  2169
 C        -0.123745         0.007812        -0.076804
 C         1.427549         0.053772         0.137199
 C         1.958818         0.092183         1.603264
 C         3.425655        -0.138866         1.277387
 O         4.115145         1.148252         1.223391
 C         3.490958         1.882575         0.206251
 C         2.564501         0.911748        -0.564724
 C         3.177788        -0.466666        -0.357787
 O         1.987703        -1.224583        -0.252002
 H        -0.507413         1.046212        -0.548606
 H        -0.429057        -0.746544        -0.792847
 H        -0.821286        -0.135049         0.870160
 H         1.766874         1.145767         2.077635
 H         1.462151        -0.748877         2.194796
 H         4.087484        -0.795229         1.880359
 H         2.937390         2.714601         0.646025
 H         4.255075         2.204375        -0.547766
 H         2.188310         1.340028        -1.499871
 H         4.067339        -0.853971        -0.909822
