19
Iteration:   342charge 0 multiplicity 1
 C        -0.131504         0.070821        -0.051782
 C         1.390719         0.049142         0.152700
 C         2.031081        -0.353766         1.538720
 C         3.540128        -0.287904         1.089662
 O         4.137452         0.961659         1.421831
 C         3.265872         1.914529         0.652198
 C         2.518018         1.139607        -0.355507
 C         3.271858        -0.227391        -0.473422
 O         2.013706        -0.945082        -0.775773
 H        -0.485832         1.030096        -0.434315
 H        -0.398292        -0.758147        -0.731243
 H        -0.679237        -0.031366         0.961929
 H         1.719566         0.224957         2.382328
 H         1.801191        -1.464564         1.751886
 H         4.037883        -1.180930         1.398635
 H         2.523620         2.233719         1.328380
 H         3.858325         2.868144         0.475880
 H         2.282163         1.614532        -1.250160
 H         4.001906        -0.392793        -1.255039
