19
Iteration:  3420charge 0 multiplicity 1
 C        -0.049046         0.256203        -0.013420
 C         1.430578         0.017217         0.220169
 C         1.885836         0.045486         1.644644
 C         3.495906        -0.103044         1.251303
 O         4.010157         1.170578         1.223557
 C         3.348162         1.841438         0.057414
 C         2.583537         0.754079        -0.682509
 C         3.322547        -0.505662        -0.248252
 O         1.988811        -1.246395        -0.267556
 H        -0.654297         0.349750         0.911204
 H        -0.256486         1.229909        -0.555272
 H        -0.457870        -0.618890        -0.648540
 H         1.803415         1.101589         2.061068
 H         1.437276        -0.758602         2.239105
 H         4.055981        -0.734026         1.991828
 H         2.693108         2.597843         0.540179
 H         4.174446         2.418410        -0.342558
 H         2.532902         0.855319        -1.755936
 H         4.183438        -0.839132        -0.881113
