19
Iteration:  2230
 C         0.014673         0.314883        -0.041552
 C         1.463076         0.033021         0.166402
 C         1.937889        -0.010235         1.602662
 C         3.492167        -0.100335         1.203592
 O         4.110640         1.238953         1.220944
 C         3.214449         1.885979         0.163116
 C         2.578411         0.743500        -0.593773
 C         3.253641        -0.551341        -0.249736
 O         1.990505        -1.300389        -0.253942
 H        -0.039340         1.416602        -0.131677
 H        -0.201995        -0.093732        -1.015429
 H        -0.652403         0.076884         0.696301
 H         1.596645         0.774831         2.172698
 H         1.497602        -0.995261         1.920576
 H         4.003740        -0.872760         1.729192
 H         2.318528         2.363582         0.687787
 H         3.768133         2.576117        -0.496380
 H         2.249485         0.972289        -1.696721
 H         4.102875        -0.960896        -0.735585
