19
Iteration:  2479
 C        -0.117452         0.137063        -0.069943
 C         1.371035         0.022378         0.200789
 C         1.989547         0.167815         1.603219
 C         3.451022        -0.114915         1.240059
 O         4.125026         1.169991         1.185672
 C         3.368837         1.838165         0.152540
 C         2.551908         0.757142        -0.545064
 C         3.249591        -0.497814        -0.244744
 O         2.013333        -1.228636        -0.289324
 H        -0.604707         0.969820         0.595903
 H        -0.325332         0.363336        -1.189491
 H        -0.596860        -0.824954         0.097980
 H         2.032733         1.146452         2.153445
 H         1.461244        -0.743412         2.110264
 H         4.110989        -0.671322         1.898799
 H         2.661454         2.673554         0.657483
 H         3.989632         2.382896        -0.639889
 H         2.378746         0.947694        -1.639341
 H         4.014956        -0.963556        -0.819390
