19
Iteration:  1493charge 0 multiplicity 1
 C        -0.150746         0.094192        -0.133276
 C         1.366481         0.055220         0.171937
 C         1.994745         0.089535         1.658773
 C         3.485769        -0.123486         1.263257
 O         4.186560         1.196984         1.151202
 C         3.312229         1.895382         0.223170
 C         2.649526         0.828711        -0.524393
 C         3.245531        -0.597433        -0.267944
 O         1.945320        -1.163270        -0.328850
 H        -0.303704         1.138155        -0.537432
 H        -0.389859        -0.675112        -0.827002
 H        -0.844207        -0.172639         0.795690
 H         1.745293         0.842689         2.400949
 H         1.615032        -0.846098         2.104702
 H         3.964137        -0.803925         1.980437
 H         2.705618         2.570635         0.788549
 H         3.851473         2.660286        -0.472898
 H         2.389577         1.104592        -1.635272
 H         4.027032        -1.197225        -0.848806
