19
Iteration:  4460
 C        -0.161535        -0.004346        -0.072939
 C         1.329310         0.149569         0.190027
 C         1.945037         0.100465         1.695384
 C         3.473829        -0.081636         1.303714
 O         4.149254         1.241936         1.085418
 C         3.472338         1.868266         0.029098
 C         2.612992         0.768943        -0.582654
 C         3.230311        -0.541524        -0.186371
 O         1.947693        -1.198291        -0.222499
 H        -0.370334         0.991355        -0.425495
 H        -0.414546        -0.702361        -0.849337
 H        -0.742738        -0.150531         0.892131
 H         1.834768         1.040016         2.371853
 H         1.524007        -0.741328         2.269533
 H         4.095978        -0.661284         2.014439
 H         2.914474         2.785539         0.289930
 H         4.162559         2.139153        -0.837558
 H         2.338450         0.807901        -1.693522
 H         3.987226        -1.254674        -0.745091
