19
Iteration:  4786charge 0 multiplicity 1
 C        -0.158711         0.042286        -0.113654
 C         1.389014         0.106444         0.226510
 C         1.931828         0.270457         1.694698
 C         3.468616         0.000385         1.246523
 O         4.223402         1.185478         0.955709
 C         3.451395         1.823772        -0.050677
 C         2.594906         0.768765        -0.577927
 C         3.219763        -0.633896        -0.054178
 O         1.909310        -1.261658        -0.085887
 H        -0.275511        -0.525033        -1.048359
 H        -0.640841        -0.613656         0.685026
 H        -0.661265         1.088036        -0.252961
 H         1.792907         1.290333         2.135867
 H         1.469193        -0.497823         2.270069
 H         4.003268        -0.483029         2.005214
 H         2.705110         2.513342         0.373126
 H         4.137173         2.339447        -0.767347
 H         2.282996         0.803305        -1.667298
 H         4.014289        -1.170864        -0.496866
