19
Iteration:  1093charge 0 multiplicity 1
 C         0.025854         0.427937        -0.118940
 C         1.444011         0.052073         0.203785
 C         1.978650        -0.116038         1.667769
 C         3.489390        -0.143253         1.221694
 O         3.978272         1.229448         1.146875
 C         3.143421         1.909319         0.188392
 C         2.605935         0.772281        -0.547337
 C         3.360810        -0.625146        -0.239843
 O         2.005593        -1.252560        -0.300233
 H         0.066855         1.536916        -0.160386
 H        -0.258013        -0.168352        -1.003107
 H        -0.529856        -0.002557         0.722775
 H         1.707527         0.650818         2.370336
 H         1.672833        -0.988114         2.060273
 H         4.080888        -0.728742         1.851827
 H         2.380040         2.506436         0.681945
 H         3.726041         2.538318        -0.533154
 H         2.427799         0.969479        -1.644374
 H         4.113481        -1.208515        -0.792088
