19
Iteration:  1804charge 0 multiplicity 1
 C        -0.102170         0.211968        -0.073557
 C         1.412991         0.026655         0.219678
 C         1.973575         0.015966         1.625327
 C         3.539103        -0.031156         1.300810
 O         4.131558         1.166155         1.136448
 C         3.240601         1.887141         0.189327
 C         2.593771         0.801064        -0.613677
 C         3.269231        -0.606480        -0.222912
 O         1.943162        -1.209681        -0.361893
 H        -0.573463         1.000962         0.502519
 H        -0.119788         0.465172        -1.194454
 H        -0.628729        -0.669911         0.146053
 H         1.623281         0.907647         2.207407
 H         1.734117        -0.977632         2.160989
 H         4.204144        -0.626101         1.995654
 H         2.585777         2.497018         0.886218
 H         4.007413         2.640727        -0.348632
 H         2.373203         1.011779        -1.595549
 H         4.180961        -1.153415        -0.651474
