19
Iteration:  4220charge 0 multiplicity 1
 C        -0.022242         0.257134         0.093683
 C         1.465180         0.073902         0.164208
 C         1.961890        -0.010618         1.639391
 C         3.456360        -0.105099         1.350208
 O         4.020234         1.286849         1.162292
 C         3.321580         1.875781         0.072247
 C         2.586923         0.743282        -0.686579
 C         3.285097        -0.615879        -0.252997
 O         1.965884        -1.253626        -0.335902
 H        -0.577180        -0.180336         0.984254
 H        -0.181372         1.330219         0.225916
 H        -0.367349        -0.195468        -0.909512
 H         1.594905         0.745716         2.351728
 H         1.623154        -0.962915         1.910401
 H         4.077832        -0.662432         2.031625
 H         2.541885         2.652833         0.351000
 H         3.948271         2.475927        -0.654396
 H         2.459116         0.834088        -1.752229
 H         4.152522        -1.127061        -0.718555
