19
Iteration:   100
 C        -0.000283         0.339343         0.103691
 C         1.429862         0.051099         0.128573
 C         2.143573        -0.666270         1.370373
 C         3.532792        -0.376111         0.989342
 O         3.999158         0.937922         1.515777
 C         3.020493         1.900683         0.901570
 C         2.474866         1.137525        -0.284803
 C         3.265628        -0.155159        -0.538794
 O         2.131358        -0.877075        -0.980581
 H        -0.409376         0.129090        -0.847157
 H        -0.536267        -0.339910         0.814580
 H        -0.325283         1.376320         0.457676
 H         1.864470        -0.340143         2.317839
 H         2.020296        -1.750067         1.290301
 H         4.340088        -1.083881         1.276587
 H         2.183815         2.152809         1.613491
 H         3.580182         2.825374         0.510784
 H         2.375661         1.605753        -1.202433
 H         4.124669        -0.253484        -1.242392
