19
Iteration:  1912charge 0 multiplicity 1
 C         0.038165         0.480432         0.011015
 C         1.486515        -0.058965         0.181477
 C         1.977503        -0.103129         1.642222
 C         3.504387        -0.143579         1.265836
 O         3.956884         1.256448         1.208141
 C         3.187038         1.956264         0.147905
 C         2.548222         0.766626        -0.664317
 C         3.277631        -0.572079        -0.260094
 O         2.041080        -1.314796        -0.332242
 H        -0.074477         1.550081         0.098177
 H        -0.230016         0.099799        -1.051454
 H        -0.656360        -0.132215         0.631009
 H         1.664125         0.679218         2.392425
 H         1.672764        -1.096736         2.105147
 H         4.262808        -0.814888         1.779559
 H         2.481272         2.556400         0.689605
 H         3.859004         2.475065        -0.458570
 H         2.384158         0.886669        -1.678604
 H         4.141440        -1.115083        -0.804239
