19
Iteration:   760charge 0 multiplicity 1
 C        -0.021090         0.370942         0.005897
 C         1.454829        -0.016502         0.180178
 C         1.982297        -0.273585         1.511389
 C         3.530653        -0.179162         1.164530
 O         3.911710         1.184013         1.367211
 C         3.246504         1.910974         0.340047
 C         2.536789         0.856930        -0.535825
 C         3.342417        -0.462717        -0.339524
 O         2.056936        -1.168350        -0.520064
 H        -0.094210         0.973126        -0.929830
 H        -0.768630        -0.506182         0.148248
 H        -0.315951         0.978251         0.813333
 H         1.771652         0.601221         2.220846
 H         1.701469        -1.212114         2.046860
 H         4.143534        -0.870887         1.641101
 H         2.551198         2.591792         0.924246
 H         4.004223         2.489755        -0.248283
 H         2.133991         0.997918        -1.521572
 H         4.212003        -0.715087        -0.967066
