19
Iteration:  1241charge 0 multiplicity 1
 C         0.047783         0.343935        -0.069940
 C         1.458357         0.027965         0.144893
 C         2.011394        -0.027569         1.580089
 C         3.478062        -0.093468         1.228785
 O         4.067135         1.259453         1.222076
 C         3.182198         1.877570         0.188142
 C         2.559682         0.734367        -0.576180
 C         3.268916        -0.605395        -0.218916
 O         1.961628        -1.276928        -0.307618
 H        -0.036960         1.420990        -0.081315
 H        -0.351904        -0.074822        -0.988794
 H        -0.497009         0.047999         0.853373
 H         1.748573         0.760551         2.311079
 H         1.666656        -1.082584         1.930407
 H         4.165827        -0.637295         1.844613
 H         2.489413         2.570350         0.764621
 H         3.691206         2.520478        -0.529929
 H         2.294966         0.722098        -1.621161
 H         4.000794        -0.995988        -0.829820
