19
Iteration:  1195
 C        -0.107267         0.042631        -0.078276
 C         1.378966         0.062423         0.170395
 C         1.913299         0.099839         1.604710
 C         3.459092        -0.077401         1.268411
 O         4.226928         1.136749         1.203816
 C         3.406894         1.876902         0.153351
 C         2.530629         0.884668        -0.550326
 C         3.248514        -0.497356        -0.226410
 O         1.908904        -1.216219        -0.304220
 H        -0.798375         0.678311         0.488147
 H        -0.155351         0.217367        -1.260469
 H        -0.266390        -0.974591         0.169756
 H         1.701492         0.993577         2.096829
 H         1.468270        -0.793635         2.148830
 H         4.107937        -0.821409         1.909409
 H         2.899288         2.804767         0.497622
 H         4.141010         2.271120        -0.605919
 H         2.318184         1.132147        -1.560160
 H         4.156354        -0.872170        -0.769373
