19
Iteration:  3898charge 0 multiplicity 1
 C        -0.038023         0.262069        -0.032656
 C         1.463754         0.066858         0.150764
 C         2.048183        -0.003582         1.685509
 C         3.487267        -0.181479         1.275322
 O         4.004234         1.229603         1.156733
 C         3.247786         1.929606         0.139779
 C         2.622082         0.799645        -0.577295
 C         3.277655        -0.579190        -0.241220
 O         1.961846        -1.272180        -0.333994
 H        -0.466379         0.847975         0.786267
 H        -0.283920         0.748307        -1.078654
 H        -0.613721        -0.691382        -0.084767
 H         1.875420         0.890073         2.282963
 H         1.408709        -0.802514         2.121123
 H         4.096899        -0.791496         1.832302
 H         2.547703         2.637508         0.631999
 H         3.983178         2.475022        -0.466759
 H         2.325548         0.949293        -1.634684
 H         4.073958        -1.047780        -0.750436
