19
Iteration:  2961charge 0 multiplicity 1
 C        -0.059628         0.175443        -0.148306
 C         1.436542        -0.013189         0.200196
 C         1.939005        -0.001663         1.654715
 C         3.447015        -0.048154         1.220969
 O         4.123829         1.200806         1.205007
 C         3.332815         1.863241         0.105559
 C         2.552142         0.808992        -0.533813
 C         3.329898        -0.451752        -0.234119
 O         1.908956        -1.261649        -0.262903
 H        -0.178834         1.317036        -0.470803
 H        -0.216877        -0.547417        -0.929626
 H        -0.645775        -0.066169         0.798240
 H         1.689082         0.785905         2.300040
 H         1.610910        -0.929523         2.222632
 H         4.211688        -0.732115         1.700690
 H         2.777867         2.718950         0.613546
 H         4.105371         2.369642        -0.536269
 H         2.044067         1.117622        -1.468170
 H         4.051085        -0.993588        -0.876956
