19
Iteration:  1334charge 0 multiplicity 1
 C        -0.101832         0.036878        -0.044980
 C         1.442252         0.110672         0.131490
 C         1.963851         0.059620         1.656194
 C         3.453235        -0.079467         1.324400
 O         4.115438         1.090290         1.116705
 C         3.376632         1.888484         0.127929
 C         2.574752         0.858788        -0.580866
 C         3.247479        -0.534985        -0.194641
 O         1.938776        -1.126357        -0.318868
 H        -0.784786         0.621137         0.593563
 H        -0.379895         0.207621        -1.109663
 H        -0.371373        -0.943205         0.177731
 H         1.708834         1.027485         2.256660
 H         1.502485        -0.804480         2.101562
 H         4.021639        -0.809285         2.002037
 H         2.870347         2.794567         0.553375
 H         4.182267         2.354053        -0.453749
 H         2.409610         1.093763        -1.617731
 H         4.204533        -0.978849        -0.699420
