19
Iteration:   107
 C        -0.016098         0.372211         0.155237
 C         1.477529         0.005829         0.123031
 C         2.115062        -0.684806         1.397277
 C         3.567833        -0.357370         0.981072
 O         3.937308         0.972738         1.491528
 C         3.032899         1.862175         0.884647
 C         2.537311         1.102582        -0.311133
 C         3.308009        -0.129391        -0.552899
 O         2.111985        -0.889687        -0.975896
 H        -0.484803         0.482753        -0.955136
 H        -0.673395        -0.407100         0.572705
 H        -0.285466         1.281293         0.648421
 H         1.605381        -0.328133         2.413374
 H         1.998209        -1.750976         1.331718
 H         4.320484        -1.089953         1.174748
 H         2.259179         2.112356         1.606048
 H         3.601804         2.852852         0.752155
 H         2.112741         1.681644        -1.200204
 H         4.199058        -0.151797        -1.130758
