19
Iteration:  3308
 C        -0.104953         0.131296        -0.082794
 C         1.358914         0.090513         0.202290
 C         1.931383         0.173680         1.656171
 C         3.463780        -0.143537         1.329862
 O         4.155404         1.185839         1.084318
 C         3.412758         1.898204         0.074358
 C         2.571853         0.780925        -0.589257
 C         3.247984        -0.551631        -0.126083
 O         1.964052        -1.270895        -0.284023
 H        -0.235420        -1.002234        -0.301602
 H        -0.682386         0.297698         0.789356
 H        -0.300946         0.740954        -1.000473
 H         1.789925         1.096319         2.120821
 H         1.256658        -0.602285         2.152508
 H         4.035323        -0.764468         2.008404
 H         2.728670         2.700855         0.400513
 H         4.147301         2.391635        -0.651341
 H         2.359903         1.011009        -1.648235
 H         4.118555        -0.999288        -0.641045
