19
Iteration:  3974charge 0 multiplicity 1
 C        -0.054410         0.135006         0.031080
 C         1.356572         0.100739         0.129549
 C         1.921657         0.094597         1.667450
 C         3.473965        -0.196347         1.219589
 O         4.120675         1.204631         1.210344
 C         3.334263         1.875748         0.166300
 C         2.637707         0.832359        -0.577238
 C         3.286597        -0.528961        -0.302180
 O         1.972123        -1.241168        -0.365645
 H        -0.567895         0.781873         0.732693
 H        -0.498985         0.261201        -1.030202
 H        -0.365578        -0.906290         0.222557
 H         1.788918         0.893726         2.252782
 H         1.347769        -0.667249         2.222152
 H         3.910393        -0.794191         1.945429
 H         2.632761         2.623643         0.598273
 H         4.016843         2.461651        -0.425165
 H         2.346137         1.150119        -1.609517
 H         4.141030        -0.914277        -0.835882
