19
Iteration:   295charge 0 multiplicity 1
 C         0.008686         0.334426         0.118812
 C         1.439076        -0.028219         0.155069
 C         2.074585        -0.619015         1.449413
 C         3.530863        -0.284222         1.040970
 O         3.892202         1.020813         1.524097
 C         3.189307         1.930303         0.682739
 C         2.496381         1.049232        -0.417988
 C         3.274711        -0.165051        -0.554344
 O         2.108141        -0.994200        -0.794372
 H        -0.369845         0.325891        -0.920788
 H        -0.685805        -0.273643         0.742116
 H        -0.137121         1.443108         0.404126
 H         1.868580        -0.073937         2.456273
 H         1.719214        -1.713253         1.574163
 H         4.303514        -1.065670         1.271862
 H         2.541321         2.663915         1.160881
 H         3.923724         2.585123         0.154702
 H         2.202035         1.444019        -1.372770
 H         4.171070        -0.307554        -1.242125
