19
Iteration:  3560
 C         0.030111         0.402532         0.026875
 C         1.479805        -0.071232         0.172620
 C         1.931722        -0.006599         1.640158
 C         3.452999        -0.058295         1.234227
 O         3.965363         1.199541         1.242135
 C         3.274513         1.904435         0.230057
 C         2.599891         0.766905        -0.657365
 C         3.277997        -0.562676        -0.302449
 O         2.038821        -1.329496        -0.375376
 H        -0.155486         1.242182        -0.619200
 H        -0.600485        -0.374129        -0.427931
 H        -0.501586         0.547898         0.984938
 H         1.632286         0.919026         2.013132
 H         1.489507        -0.839571         2.191762
 H         4.184870        -0.826686         1.664608
 H         2.522106         2.623281         0.563496
 H         4.008301         2.503519        -0.379528
 H         2.202781         0.834545        -1.695564
 H         4.295078        -0.994983        -0.686841
