19
Iteration:   977charge 0 multiplicity 1
 C         0.023070         0.280762        -0.096719
 C         1.460775        -0.017058         0.197740
 C         1.962548        -0.079134         1.666501
 C         3.441174        -0.135305         1.263361
 O         4.019970         1.172810         1.227208
 C         3.292926         1.892936         0.221298
 C         2.518989         0.811025        -0.585237
 C         3.270783        -0.468547        -0.347741
 O         2.014727        -1.230569        -0.371215
 H        -0.092788         0.443306        -1.178645
 H        -0.697288        -0.314800         0.552601
 H        -0.241306         1.215774         0.376536
 H         1.693334         0.777367         2.231896
 H         1.599079        -1.024673         2.245947
 H         4.221268        -0.791533         1.667149
 H         2.551435         2.569683         0.727120
 H         4.004569         2.504591        -0.291781
 H         2.243490         1.149892        -1.551880
 H         4.226056        -0.963383        -0.702230
