19
Iteration:  1507charge 0 multiplicity 1
 C        -0.087588         0.062296        -0.179516
 C         1.386313         0.070612         0.188760
 C         1.933972         0.058630         1.610883
 C         3.499252        -0.124851         1.223381
 O         4.244920         1.130375         1.098317
 C         3.342105         1.927474         0.316686
 C         2.536541         0.900141        -0.604413
 C         3.190012        -0.513573        -0.177536
 O         1.942791        -1.227182        -0.262804
 H        -0.564545         1.022013        -0.530243
 H        -0.299507        -0.662814        -1.021743
 H        -0.740270        -0.141904         0.904396
 H         1.750613         1.126084         2.071689
 H         1.567415        -0.726477         2.260387
 H         4.220230        -0.746393         1.795362
 H         2.573512         2.490592         0.889974
 H         4.029523         2.517687        -0.268429
 H         2.554101         1.160509        -1.640285
 H         4.009617        -0.997807        -0.762868
