19
Iteration:  2299charge 0 multiplicity 1
 C        -0.080048         0.193464        -0.079945
 C         1.424532         0.030997         0.198966
 C         1.934091        -0.013838         1.625234
 C         3.500603        -0.108144         1.286261
 O         4.045129         1.279018         1.241179
 C         3.426637         1.924693         0.049929
 C         2.588557         0.808485        -0.594191
 C         3.203734        -0.571503        -0.264419
 O         1.952434        -1.249341        -0.271847
 H        -0.417049         0.708923         0.870786
 H        -0.322517         0.791684        -0.911919
 H        -0.596696        -0.798787        -0.025247
 H         1.739199         0.700742         2.483349
 H         1.665636        -1.043114         1.966750
 H         4.276603        -0.757255         1.760459
 H         2.810622         2.892642         0.341411
 H         4.243615         2.069130        -0.643869
 H         2.354571         1.070569        -1.661945
 H         4.011555        -1.211655        -0.741908
