19
Iteration:  3584charge 0 multiplicity 1
 C        -0.032186         0.273081        -0.161804
 C         1.423901         0.082290         0.212389
 C         2.005388        -0.029469         1.629358
 C         3.571955        -0.198960         1.270519
 O         4.059713         1.234768         1.210903
 C         3.242533         1.883416         0.237071
 C         2.538553         0.779607        -0.557227
 C         3.265834        -0.562319        -0.276153
 O         1.970559        -1.210062        -0.303558
 H        -0.202490         0.993946        -0.956166
 H        -0.547764        -0.693092        -0.558100
 H        -0.699129         0.563149         0.679369
 H         2.003737         0.868675         2.249264
 H         1.507968        -0.838842         2.072352
 H         4.154716        -0.978457         1.824948
 H         2.543383         2.673315         0.555836
 H         3.858098         2.384923        -0.536119
 H         2.258502         0.938384        -1.652917
 H         4.156366        -0.975161        -0.833357
