19
Iteration:   331
 C        -0.092321         0.162833         0.013134
 C         1.421504         0.052674         0.216379
 C         2.012375        -0.427371         1.512917
 C         3.508191        -0.340943         1.063844
 O         4.078349         1.015924         1.433519
 C         3.214738         1.926151         0.706400
 C         2.569594         1.035593        -0.392271
 C         3.227833        -0.213704        -0.524707
 O         2.053665        -0.916776        -0.805612
 H        -0.396069         0.898194        -0.711679
 H        -0.322018        -0.832199        -0.418889
 H        -0.656474         0.179446         1.041902
 H         1.717628         0.168661         2.342837
 H         1.688756        -1.531077         1.675259
 H         4.306201        -0.923157         1.453117
 H         2.551965         2.442079         1.328270
 H         3.910665         2.633929         0.080579
 H         2.313367         1.453650        -1.292928
 H         4.140210        -0.348122        -1.095979
