19
Iteration:  2193
 C        -0.086298         0.078480        -0.122756
 C         1.388900         0.069112         0.234623
 C         1.925475         0.090760         1.675942
 C         3.451487        -0.135155         1.219146
 O         4.214316         1.135944         1.203908
 C         3.359847         1.892850         0.158424
 C         2.530153         0.852386        -0.532601
 C         3.233248        -0.505372        -0.206492
 O         1.953656        -1.188482        -0.375045
 H        -0.393933         0.962077        -0.664922
 H        -0.159110        -0.761027        -0.905173
 H        -0.923405        -0.132041         0.655301
 H         1.747581         1.147975         2.201047
 H         1.698087        -0.726837         2.314529
 H         4.115998        -0.816637         1.847349
 H         2.821979         2.554277         0.788215
 H         3.998344         2.445449        -0.622591
 H         2.360658         0.951068        -1.545033
 H         4.121517        -0.836636        -0.837377
