19
Iteration:  4016
 C        -0.010272         0.421554        -0.095321
 C         1.438855         0.006826         0.230468
 C         1.971521        -0.148516         1.720138
 C         3.510765        -0.128497         1.257306
 O         4.067689         1.240185         1.151201
 C         3.191709         1.885167         0.215696
 C         2.516663         0.788158        -0.555942
 C         3.287880        -0.531510        -0.301067
 O         2.030358        -1.318601        -0.381361
 H         0.047203         1.482089        -0.048711
 H        -0.305870        -0.053329        -1.042286
 H        -0.661536         0.092564         0.733209
 H         1.891591         0.822485         2.251980
 H         1.517542        -1.032068         2.262063
 H         4.245456        -0.673338         1.725265
 H         2.485920         2.588200         0.725709
 H         3.712749         2.525547        -0.476346
 H         2.226849         0.954724        -1.625127
 H         4.094798        -0.914107        -0.873656
