19
Iteration:  4540charge 0 multiplicity 1
 C         0.006521         0.437995         0.018888
 C         1.496643        -0.012116         0.126898
 C         1.969252         0.057846         1.684803
 C         3.488710        -0.013029         1.327505
 O         4.014538         1.273354         1.044368
 C         3.167609         1.852520        -0.012265
 C         2.654836         0.639796        -0.669445
 C         3.292912        -0.658696        -0.147351
 O         1.989790        -1.331412        -0.162072
 H        -0.455871         0.831666         0.926045
 H        -0.108534         1.171575        -0.896218
 H        -0.579418        -0.447721        -0.210114
 H         1.600588         0.925963         2.111520
 H         1.562741        -0.842048         2.180373
 H         4.174886        -0.481159         2.022206
 H         2.420839         2.388882         0.559205
 H         3.673409         2.526456        -0.764399
 H         2.529274         0.630965        -1.732888
 H         3.906315        -1.367612        -0.653684
