19
Iteration:  4805charge 0 multiplicity 1
 C        -0.038887         0.206749        -0.135290
 C         1.371756         0.049074         0.266648
 C         1.980536         0.178224         1.731073
 C         3.472269         0.012379         1.357440
 O         4.164186         1.237463         0.990685
 C         3.339464         1.868646        -0.111552
 C         2.529292         0.592670        -0.674117
 C         3.220423        -0.614968        -0.134254
 O         1.934902        -1.279202        -0.038888
 H        -0.127457         0.231582        -1.256044
 H        -0.652675        -0.558601         0.206137
 H        -0.374400         1.192171         0.260435
 H         1.719480         1.185937         2.136588
 H         1.613388        -0.625715         2.344282
 H         4.110362        -0.659042         2.101732
 H         2.755114         2.730921         0.323722
 H         4.047776         2.329996        -0.876445
 H         2.530604         0.625933        -1.792065
 H         4.000510        -1.237698        -0.662927
