19
Iteration:   175
 C        -0.054101         0.048546        -0.043821
 C         1.416592         0.038626         0.152880
 C         2.083870        -0.517206         1.419815
 C         3.521004        -0.378600         1.012192
 O         4.074892         0.913897         1.453088
 C         3.265599         1.937322         0.806264
 C         2.451472         1.196032        -0.230444
 C         3.258234        -0.109797        -0.440745
 O         2.000789        -0.834701        -0.853978
 H        -0.524485         0.883048         0.540840
 H        -0.365202         0.260690        -1.084540
 H        -0.541721        -0.926712         0.199999
 H         1.770694        -0.073563         2.408874
 H         1.714847        -1.541555         1.344238
 H         4.383848        -1.048756         1.115042
 H         2.615939         2.549213         1.401742
 H         3.962169         2.678796         0.213855
 H         2.095084         1.686570        -1.067798
 H         4.074957        -0.244247        -1.171255
