19
Iteration:  1455charge 0 multiplicity 1
 C        -0.022096         0.324456         0.047971
 C         1.465433        -0.010605         0.157922
 C         1.934730        -0.076567         1.624382
 C         3.404374        -0.103125         1.248988
 O         3.911487         1.224647         1.247752
 C         3.366550         1.927250         0.087183
 C         2.536162         0.739258        -0.570325
 C         3.339566        -0.547063        -0.339572
 O         2.076604        -1.266063        -0.300966
 H        -0.021313         1.384085        -0.039318
 H        -0.550386         0.072129        -0.902320
 H        -0.625624         0.208618         0.834839
 H         1.966736         0.833925         2.273986
 H         1.561240        -1.031219         2.004313
 H         4.129452        -0.653094         1.873279
 H         2.712835         2.820363         0.341413
 H         4.143117         2.180613        -0.582985
 H         2.180964         0.923655        -1.526628
 H         4.101748        -1.062000        -0.894475
