19
Iteration:  2904
 C         0.066698         0.330292         0.031214
 C         1.454089         0.064082         0.125305
 C         1.948275        -0.061463         1.577795
 C         3.447577        -0.074174         1.339454
 O         4.045877         1.290603         1.112531
 C         3.211157         1.933445         0.127265
 C         2.627302         0.736762        -0.599869
 C         3.270337        -0.645348        -0.135805
 O         1.989149        -1.333630        -0.337472
 H        -0.276409         1.199716         0.757785
 H        -0.171844         0.800070        -0.920575
 H        -0.597628        -0.517779         0.207154
 H         1.762324         0.786185         2.187696
 H         1.477983        -0.990798         1.947346
 H         4.077776        -0.605095         2.003801
 H         2.437846         2.655289         0.621907
 H         3.857306         2.478903        -0.582714
 H         2.409752         0.662094        -1.754811
 H         3.868117        -1.123325        -0.847819
