19
Iteration:  2399charge 0 multiplicity 1
 C         0.074656         0.355858        -0.069006
 C         1.464231        -0.036869         0.311538
 C         1.971161        -0.055665         1.639120
 C         3.518589        -0.131238         1.211994
 O         3.955062         1.235755         1.176216
 C         3.239714         1.906701         0.131086
 C         2.568731         0.758306        -0.581618
 C         3.287795        -0.550153        -0.224093
 O         1.947888        -1.294118        -0.332573
 H         0.107982         1.389352        -0.242129
 H        -0.176327        -0.228164        -1.011926
 H        -0.676078         0.194521         0.803150
 H         1.630127         0.949037         2.226091
 H         1.646067        -0.924858         2.127504
 H         4.283482        -0.611094         1.841903
 H         2.614045         2.909315         0.449525
 H         4.061194         2.278288        -0.479278
 H         2.291399         0.885938        -1.567081
 H         3.974868        -0.816836        -1.064439
