19
Iteration:  4397charge 0 multiplicity 1
 C        -0.064365         0.224526        -0.043135
 C         1.463443         0.056171         0.210630
 C         2.002848        -0.035902         1.719646
 C         3.448061        -0.019306         1.315090
 O         4.127251         1.253755         1.037644
 C         3.282132         1.925995         0.094830
 C         2.621295         0.684405        -0.671108
 C         3.224300        -0.582217        -0.157734
 O         1.931722        -1.236800        -0.258441
 H        -0.264881         0.513476        -1.067224
 H        -0.708851        -0.731268         0.123369
 H        -0.504729         1.108537         0.512889
 H         1.779877         0.814661         2.290292
 H         1.562927        -0.904298         2.142372
 H         4.011263        -0.594961         2.022355
 H         2.653884         2.619548         0.641738
 H         3.958863         2.435689        -0.618993
 H         2.475589         0.576270        -1.805350
 H         4.069836        -1.087928        -0.721543
