19
Iteration:  3258
 C        -0.094797         0.283283        -0.102849
 C         1.410142         0.102143         0.213754
 C         1.985830         0.011823         1.684426
 C         3.450440        -0.059307         1.221497
 O         3.998837         1.292075         1.195644
 C         3.362689         1.833570         0.032945
 C         2.593913         0.686646        -0.557158
 C         3.268677        -0.616182        -0.226158
 O         2.030908        -1.307779        -0.234602
 H        -0.494321        -0.682752        -0.155756
 H        -0.493152         0.809896         0.807471
 H        -0.206254         0.880609        -1.016626
 H         1.903010         1.122939         1.980647
 H         1.453342        -0.615290         2.341718
 H         3.984069        -0.709074         1.878641
 H         2.818347         2.781009         0.252941
 H         4.050219         2.107954        -0.755107
 H         2.335807         0.709905        -1.581352
 H         4.156422        -0.997675        -0.714818
