19
Iteration:  3394
 C        -0.004482         0.366496        -0.120543
 C         1.408422         0.034263         0.231839
 C         1.971531        -0.048747         1.700001
 C         3.515098        -0.091330         1.267655
 O         4.011784         1.280359         1.235829
 C         3.328282         1.913281        -0.001496
 C         2.528125         0.756277        -0.567256
 C         3.219324        -0.611740        -0.253171
 O         2.004590        -1.332856        -0.269727
 H        -0.665007        -0.141065         0.660560
 H        -0.258947         1.382400        -0.252463
 H        -0.394054        -0.227447        -0.925820
 H         1.796406         0.775723         2.275268
 H         1.674209        -1.009902         2.121280
 H         4.045126        -0.629371         2.020039
 H         2.936033         2.861369         0.347950
 H         4.249277         2.189957        -0.586766
 H         2.460961         0.839876        -1.658334
 H         4.001960        -0.961886        -0.931959
