19
Iteration:  3191charge 0 multiplicity 1
 C        -0.012834         0.253987        -0.139098
 C         1.394932         0.018011         0.182812
 C         1.991637         0.040022         1.663011
 C         3.457542        -0.044449         1.299683
 O         4.096898         1.210735         1.160549
 C         3.284203         1.850133         0.111436
 C         2.555330         0.730521        -0.630369
 C         3.215827        -0.514469        -0.207097
 O         1.984137        -1.310347        -0.233222
 H        -0.608205         0.195062         0.761233
 H        -0.110205         1.292147        -0.478348
 H        -0.415650        -0.414011        -0.964708
 H         2.053788         1.046569         2.179039
 H         1.589953        -0.750651         2.372684
 H         4.176651        -0.690397         1.813807
 H         2.594053         2.663865         0.474741
 H         4.036186         2.380381        -0.410448
 H         2.330778         0.880071        -1.653202
 H         4.121507        -0.957294        -0.687762
