19
Iteration:   155
 C        -0.079215         0.208119         0.060884
 C         1.396951         0.046871         0.204040
 C         2.074411        -0.623318         1.438013
 C         3.578559        -0.316104         0.996633
 O         3.966123         0.928247         1.516321
 C         3.189998         1.909421         0.792744
 C         2.482904         1.138995        -0.303840
 C         3.331479        -0.106346        -0.599144
 O         2.086232        -0.888028        -0.928104
 H        -0.436821         1.168041         0.111581
 H        -0.512281        -0.203093        -0.864634
 H        -0.728682        -0.276935         0.872811
 H         1.936074        -0.182727         2.346774
 H         1.800449        -1.696530         1.575309
 H         4.343361        -1.029191         1.440157
 H         2.482320         2.355207         1.546409
 H         3.914845         2.792582         0.547762
 H         2.193802         1.691786        -1.131052
 H         4.177037        -0.285951        -1.336763
