19
Iteration:  1231charge 0 multiplicity 1
 C        -0.002110         0.310436        -0.059599
 C         1.450429         0.037187         0.202328
 C         1.948631        -0.003186         1.598190
 C         3.523127        -0.143257         1.257818
 O         4.079498         1.191089         1.174473
 C         3.194251         1.921642         0.165156
 C         2.573074         0.752833        -0.579322
 C         3.322113        -0.513368        -0.254333
 O         1.974481        -1.306101        -0.316020
 H        -0.242191         1.349884        -0.012721
 H        -0.328637        -0.107881        -0.966339
 H        -0.700713        -0.260577         0.631414
 H         1.691245         1.031961         2.125590
 H         1.471501        -0.786707         2.342887
 H         4.046307        -0.861243         1.828912
 H         2.386051         2.643643         0.630176
 H         3.960073         2.453947        -0.396492
 H         2.341544         1.114849        -1.595448
 H         4.108913        -1.027665        -0.681827
