19
Iteration:  4841charge 0 multiplicity 1
 C         0.003827         0.492333         0.016649
 C         1.470588        -0.006677         0.220743
 C         1.994188         0.097079         1.681610
 C         3.495219        -0.006265         1.308861
 O         3.936413         1.339723         1.117618
 C         3.246641         1.805242        -0.248107
 C         2.607876         0.568350        -0.698549
 C         3.307576        -0.739694        -0.149632
 O         2.004347        -1.366747        -0.053833
 H         0.009752         0.992990        -0.924629
 H        -0.824922        -0.317556         0.027241
 H        -0.295734         1.284115         0.822585
 H         1.753475         1.112236         2.027983
 H         1.408914        -0.554506         2.301384
 H         4.017434        -0.340696         2.084761
 H         2.423061         2.539663        -0.048694
 H         4.074971         2.290185        -0.846098
 H         2.564306         0.198695        -1.713756
 H         4.012966        -1.241298        -0.716650
