19
Iteration:  2957
 C        -0.033278         0.235892        -0.142515
 C         1.431281        -0.020819         0.196551
 C         1.969670        -0.011150         1.629444
 C         3.473482        -0.082745         1.227608
 O         4.096378         1.214519         1.211844
 C         3.349735         1.889957         0.105793
 C         2.526834         0.822401        -0.526764
 C         3.333606        -0.472679        -0.237033
 O         1.913355        -1.313981        -0.240955
 H        -0.299550         1.252243        -0.487485
 H        -0.218092        -0.427320        -0.995328
 H        -0.632785        -0.096482         0.673723
 H         1.729779         0.860496         2.281676
 H         1.595499        -0.887890         2.156172
 H         4.103164        -0.799453         1.676991
 H         2.747446         2.732246         0.531950
 H         3.952020         2.512859        -0.537057
 H         1.883688         1.134764        -1.451454
 H         4.076970        -0.961028        -0.808381
