19
Iteration:   733charge 0 multiplicity 1
 C        -0.078314         0.124765        -0.018037
 C         1.454900         0.127229         0.207266
 C         1.963330        -0.232762         1.601888
 C         3.463974        -0.178817         1.202865
 O         3.957574         1.099901         1.343861
 C         3.409526         1.957352         0.305232
 C         2.532306         1.017444        -0.520901
 C         3.289310        -0.440898        -0.321195
 O         2.025973        -1.164421        -0.596420
 H        -0.219695        -0.103307        -1.127470
 H        -0.584951        -0.462513         0.781409
 H        -0.581883         1.160777         0.175148
 H         1.773543         0.411122         2.425528
 H         1.622767        -1.212196         1.880283
 H         4.076898        -0.942728         1.826425
 H         2.883820         2.678115         0.979537
 H         4.163857         2.490001        -0.299824
 H         2.220372         1.229870        -1.581597
 H         4.193267        -0.643680        -0.903079
