19
Iteration:  4020charge 0 multiplicity 1
 C         0.021171         0.448461        -0.090125
 C         1.380321         0.037198         0.203205
 C         2.014956        -0.160992         1.720306
 C         3.526106        -0.121878         1.259967
 O         4.053184         1.231228         1.169537
 C         3.187705         1.875882         0.213049
 C         2.480240         0.783359        -0.524152
 C         3.253672        -0.544335        -0.318674
 O         2.068812        -1.323050        -0.375093
 H         0.072554         1.578705        -0.163952
 H        -0.210600        -0.180162        -1.050397
 H        -0.635615         0.082715         0.693898
 H         1.733764         0.758972         2.171022
 H         1.504432        -0.918436         2.296142
 H         4.386206        -0.729973         1.749534
 H         2.526100         2.654364         0.644346
 H         3.795490         2.495670        -0.492702
 H         2.026648         0.848733        -1.577490
 H         4.187399        -0.877100        -0.937069
