19
Iteration:  4838charge 0 multiplicity 1
 C        -0.001105         0.481831         0.008148
 C         1.455255         0.010751         0.246083
 C         2.008420         0.095657         1.670640
 C         3.494536        -0.013692         1.291522
 O         3.938007         1.351294         1.102519
 C         3.255571         1.834701        -0.211504
 C         2.572238         0.540760        -0.690519
 C         3.310761        -0.735759        -0.158088
 O         2.001565        -1.374826        -0.049449
 H         0.040194         0.972025        -0.976223
 H        -0.682337        -0.284431         0.005847
 H        -0.269180         1.272582         0.733492
 H         1.710906         1.145679         1.924782
 H         1.406007        -0.506590         2.294258
 H         4.078639        -0.452727         2.201090
 H         2.458426         2.564460         0.009626
 H         4.114238         2.213043        -0.851517
 H         2.589540         0.284584        -1.781491
 H         4.076983        -1.346477        -0.670081
