19
Iteration:  1946charge 0 multiplicity 1
 C         0.037267         0.453091        -0.089700
 C         1.451001        -0.063983         0.189811
 C         2.018843        -0.082324         1.730480
 C         3.532220        -0.140582         1.246295
 O         4.028903         1.225191         1.193242
 C         3.143524         1.891001         0.202128
 C         2.516270         0.766800        -0.617681
 C         3.288932        -0.529993        -0.285955
 O         2.022997        -1.298684        -0.323023
 H        -0.099113         1.561693        -0.289696
 H        -0.309837        -0.063706        -1.096443
 H        -0.751543         0.227899         0.632927
 H         1.728212         0.846415         2.269899
 H         1.558038        -1.094255         2.206647
 H         4.336239        -0.768038         1.676657
 H         2.389196         2.553938         0.628715
 H         3.621451         2.650586        -0.395348
 H         2.348400         0.790517        -1.644563
 H         4.201760        -1.000264        -0.807290
