19
Iteration:   237charge 0 multiplicity 1
 C        -0.085912         0.169928         0.017852
 C         1.462095         0.071227         0.150063
 C         2.020570        -0.429620         1.445303
 C         3.545942        -0.358083         1.082346
 O         4.082002         0.969662         1.418195
 C         3.155308         1.929011         0.809801
 C         2.520434         1.086276        -0.297987
 C         3.239150        -0.194633        -0.589398
 O         2.096797        -0.932949        -0.845219
 H        -0.439148        -0.866562         0.362569
 H        -0.520991         0.969122         0.643708
 H        -0.300560         0.303300        -0.990980
 H         1.706941         0.129634         2.399249
 H         1.640345        -1.429992         1.464755
 H         4.140285        -1.205828         1.381893
 H         2.400826         2.295367         1.569172
 H         3.808715         2.680942         0.561962
 H         2.071250         1.751061        -1.164279
 H         4.055493        -0.434440        -1.219159
