19
Iteration:  1974charge 0 multiplicity 1
 C        -0.055742         0.195877        -0.098569
 C         1.419486         0.068412         0.148564
 C         1.928325        -0.027521         1.667907
 C         3.486558        -0.106453         1.213586
 O         4.087344         1.179264         1.139947
 C         3.331054         1.879574         0.216761
 C         2.571663         0.824442        -0.514734
 C         3.285055        -0.520770        -0.236836
 O         1.968018        -1.202229        -0.309431
 H        -0.567508         1.108413        -0.034701
 H        -0.309574        -0.281415        -1.023914
 H        -0.499382        -0.467888         0.744342
 H         1.604944         0.804119         2.358229
 H         1.616106        -0.961101         1.937355
 H         4.253278        -0.694423         1.814627
 H         2.679106         2.672077         0.658390
 H         3.928471         2.526281        -0.483732
 H         2.392922         0.929679        -1.629005
 H         4.127525        -0.966005        -0.783685
