19
Iteration:  4754
 C        -0.131526         0.027088         0.055101
 C         1.397213         0.061715         0.225681
 C         1.914728         0.354645         1.575605
 C         3.437160        -0.032946         1.222975
 O         4.166272         1.180231         1.126896
 C         3.507714         1.778807        -0.037705
 C         2.538590         0.731211        -0.663114
 C         3.263879        -0.578603        -0.181359
 O         1.955634        -1.280150        -0.130318
 H        -0.397854        -0.863659        -0.512632
 H        -0.720750         0.011173         1.039086
 H        -0.565987         0.932282        -0.521773
 H         1.822401         1.467641         1.626381
 H         1.308492        -0.098222         2.347913
 H         3.859523        -0.646171         1.906591
 H         2.782725         2.519812         0.299379
 H         4.199086         2.383929        -0.604024
 H         2.274412         0.977486        -1.696735
 H         4.068030        -1.130895        -0.585049
