19
Iteration:  4618charge 0 multiplicity 1
 C        -0.154793         0.016497        -0.013532
 C         1.426269         0.124854         0.191003
 C         1.934946         0.226095         1.636286
 C         3.439021        -0.028006         1.303394
 O         4.173893         1.167469         1.096103
 C         3.444241         1.814122        -0.016876
 C         2.612715         0.792217        -0.668102
 C         3.212910        -0.552219        -0.134379
 O         1.945388        -1.269898        -0.212197
 H        -0.499463        -0.367260         0.995825
 H        -0.781910         0.962533        -0.109570
 H        -0.427051        -0.668653        -0.796131
 H         1.726128         1.199892         1.990107
 H         1.370581        -0.496768         2.217969
 H         3.964249        -0.526419         2.190736
 H         2.939873         2.727379         0.295867
 H         4.303002         2.163963        -0.619698
 H         2.252451         1.067974        -1.624721
 H         3.972224        -1.084794        -0.651646
