19
Iteration:  4909
 C        -0.111881         0.094227        -0.102758
 C         1.360380         0.087597         0.275335
 C         1.979098         0.307477         1.656494
 C         3.472350         0.015532         1.261383
 O         4.135174         1.163448         1.050695
 C         3.436302         1.816766        -0.107530
 C         2.514969         0.704819        -0.647921
 C         3.188730        -0.604765        -0.111407
 O         1.975986        -1.280986        -0.035368
 H        -0.000326        -0.238860        -1.175973
 H        -0.548443        -0.821557         0.508605
 H        -0.688411         1.018885        -0.071542
 H         2.059507         1.291086         2.091465
 H         1.658298        -0.352287         2.531886
 H         4.016779        -0.585099         1.964584
 H         2.959343         2.728046         0.339785
 H         4.149234         2.073924        -0.903924
 H         2.349016         0.850302        -1.731643
 H         3.892011        -1.081530        -0.866454
