19
Iteration:  1388charge 0 multiplicity 1
 C        -0.072881         0.210552        -0.148115
 C         1.405741         0.048906         0.173418
 C         2.011027         0.045572         1.694883
 C         3.457698        -0.117590         1.217465
 O         4.121306         1.215863         1.177226
 C         3.301618         1.904666         0.161889
 C         2.525113         0.784377        -0.616258
 C         3.220310        -0.564139        -0.240582
 O         2.009171        -1.273262        -0.242774
 H        -0.419770         0.715300         0.767665
 H        -0.234871         0.929417        -0.933800
 H        -0.602309        -0.699594        -0.148961
 H         1.951169         1.063162         2.331656
 H         1.573461        -0.863822         2.124316
 H         4.053436        -0.872975         1.829699
 H         2.591931         2.610090         0.705900
 H         4.038821         2.363940        -0.455356
 H         2.328850         0.907909        -1.669514
 H         4.156246        -0.922583        -0.808680
