19
Iteration:   114charge 0 multiplicity 1
 C        -0.055192         0.365716         0.147529
 C         1.505398        -0.038959         0.121296
 C         2.064808        -0.691382         1.390278
 C         3.597102        -0.322906         0.997418
 O         3.903931         0.954120         1.472168
 C         3.055570         1.868236         0.876665
 C         2.512957         1.103200        -0.332518
 C         3.385368        -0.114789        -0.566646
 O         2.091459        -0.878446        -0.939113
 H        -0.251187         0.866464        -0.760135
 H        -0.657799        -0.508130         0.411503
 H         0.000011         1.214923         0.912461
 H         1.766858        -0.253789         2.335546
 H         1.770018        -1.809305         1.347345
 H         4.400699        -1.046649         1.286033
 H         2.163895         2.089342         1.545609
 H         3.557328         2.751216         0.760879
 H         1.966922         1.713535        -1.119090
 H         4.274126        -0.192357        -1.268728
