19
Iteration:  2955
 C        -0.018118         0.262742        -0.141030
 C         1.425583        -0.018249         0.201292
 C         1.982887        -0.017408         1.621039
 C         3.485716        -0.098642         1.231335
 O         4.082864         1.221100         1.210831
 C         3.353021         1.909248         0.115385
 C         2.509120         0.826533        -0.535666
 C         3.318459        -0.483851        -0.240518
 O         1.923205        -1.331566        -0.234308
 H        -0.337905         1.190658        -0.465346
 H        -0.240752        -0.390536        -1.046310
 H        -0.665230        -0.108544         0.642677
 H         1.752251         0.919396         2.270580
 H         1.598647        -0.878506         2.126549
 H         4.087696        -0.852232         1.734818
 H         2.726054         2.699925         0.507344
 H         3.938169         2.544660        -0.572793
 H         1.929741         1.108683        -1.420511
 H         4.144019        -0.970958        -0.810773
