19
Iteration:   979
 C         0.022944         0.262929        -0.094134
 C         1.443786        -0.023875         0.170903
 C         1.966892        -0.075263         1.684144
 C         3.420093        -0.144159         1.263053
 O         4.025459         1.166919         1.228667
 C         3.288194         1.892063         0.223484
 C         2.525662         0.817502        -0.590717
 C         3.284212        -0.457186        -0.337023
 O         2.015103        -1.226640        -0.369037
 H        -0.129828         0.475609        -1.166448
 H        -0.686648        -0.363625         0.517190
 H        -0.303288         1.235881         0.468242
 H         1.743507         0.815220         2.250106
 H         1.597990        -0.912959         2.219543
 H         4.267815        -0.838443         1.645051
 H         2.645856         2.648886         0.718726
 H         4.015857         2.485857        -0.337694
 H         2.259643         1.154749        -1.576591
 H         4.224091        -0.952872        -0.725200
