19
Iteration:  3813
 C        -0.127335         0.154148        -0.117007
 C         1.419706         0.016657         0.175327
 C         2.044099        -0.038081         1.697940
 C         3.504866        -0.134587         1.194046
 O         4.017235         1.190401         1.285021
 C         3.459579         1.942865         0.168098
 C         2.537065         0.866941        -0.541091
 C         3.199058        -0.523194        -0.293669
 O         1.960793        -1.191017        -0.348104
 H        -0.450940         0.952828        -0.744347
 H        -0.322430        -0.799474        -0.593206
 H        -0.571403         0.064661         0.818843
 H         1.759752         0.883556         2.320552
 H         1.633989        -0.845865         2.300291
 H         4.107776        -0.800918         1.749050
 H         2.995989         2.866221         0.495741
 H         4.221797         2.302288        -0.580021
 H         2.345445         1.040870        -1.625366
 H         3.891739        -1.005843        -0.925641
