19
Iteration:  1986
 C        -0.143011         0.062037        -0.065174
 C         1.391628         0.063535         0.164687
 C         1.984885         0.002335         1.661877
 C         3.468303        -0.120058         1.299954
 O         4.176193         1.185502         1.247029
 C         3.369146         1.922592         0.151774
 C         2.562951         0.840611        -0.618323
 C         3.223876        -0.481200        -0.255464
 O         1.957355        -1.183331        -0.367439
 H        -0.496834         1.014462         0.104934
 H        -0.285622        -0.145597        -1.150659
 H        -0.718061        -0.750580         0.549569
 H         1.768696         0.990843         2.172674
 H         1.530565        -0.711507         2.227456
 H         4.071602        -0.922428         1.895029
 H         2.761974         2.706163         0.672080
 H         4.149611         2.289675        -0.482621
 H         2.434862         1.057742        -1.685600
 H         4.062385        -0.975506        -0.840579
