19
Iteration:  4482charge 0 multiplicity 1
 C        -0.037302         0.212760        -0.082591
 C         1.426111         0.059636         0.266564
 C         1.992459         0.010304         1.684726
 C         3.464211         0.007387         1.306031
 O         4.078165         1.242316         1.098426
 C         3.418317         1.853723        -0.092787
 C         2.560021         0.764855        -0.606957
 C         3.247342        -0.547053        -0.094300
 O         1.914179        -1.284970        -0.224337
 H        -0.392265         1.226771        -0.025095
 H        -0.264251        -0.098530        -1.093698
 H        -0.639888        -0.513999         0.565814
 H         1.512563         0.784287         2.401919
 H         1.632220        -0.968984         2.033919
 H         4.032985        -0.621066         1.993904
 H         2.762029         2.650145         0.318591
 H         4.053523         2.344672        -0.872089
 H         2.125726         0.749809        -1.668687
 H         4.155263        -1.143424        -0.597740
