19
Iteration:  4414charge 0 multiplicity 1
 C        -0.120900         0.175983        -0.010929
 C         1.380646         0.000457         0.174249
 C         1.942021         0.210947         1.585194
 C         3.469203        -0.083169         1.262540
 O         4.152063         1.169709         1.094534
 C         3.322199         1.856046         0.087308
 C         2.564361         0.783162        -0.603287
 C         3.281077        -0.576306        -0.172574
 O         2.002232        -1.286227        -0.240968
 H        -0.450639         0.708013        -0.939017
 H        -0.474063        -0.793900        -0.087675
 H        -0.500864         0.679736         0.892750
 H         1.735067         1.264301         2.081574
 H         1.600040        -0.587688         2.350261
 H         4.169072        -0.691193         1.925348
 H         2.539654         2.469022         0.625320
 H         4.011891         2.496820        -0.476156
 H         2.367242         1.024779        -1.627685
 H         4.180888        -1.053349        -0.668779
