19
Iteration:  3534charge 0 multiplicity 1
 C        -0.095315         0.360217         0.030372
 C         1.474119         0.060064         0.126188
 C         2.006451        -0.117118         1.591777
 C         3.450928        -0.095506         1.348061
 O         3.994780         1.190656         1.181410
 C         3.293895         1.924457         0.100975
 C         2.605506         0.788785        -0.576348
 C         3.292555        -0.606026        -0.192914
 O         2.040900        -1.243256        -0.379668
 H        -0.461406         1.363714        -0.347967
 H        -0.488306        -0.379477        -0.652809
 H        -0.660403         0.297820         0.946707
 H         1.603502         0.636740         2.360403
 H         1.624949        -1.176698         1.828975
 H         4.073164        -0.575813         2.042940
 H         2.526758         2.633478         0.451879
 H         3.951876         2.435309        -0.593925
 H         2.494531         0.665497        -1.625099
 H         4.137961        -0.776035        -0.770999
