19
Iteration:   154
 C        -0.074773         0.213782         0.069445
 C         1.398206         0.046243         0.210564
 C         2.078173        -0.619506         1.433931
 C         3.577575        -0.311979         0.993670
 O         3.957651         0.927106         1.515849
 C         3.188914         1.903697         0.799995
 C         2.482608         1.138654        -0.306614
 C         3.337389        -0.105283        -0.594261
 O         2.086116        -0.900130        -0.940856
 H        -0.437498         1.213471         0.069512
 H        -0.522435        -0.217774        -0.838722
 H        -0.714596        -0.242038         0.879393
 H         1.934518        -0.172576         2.395862
 H         1.793085        -1.675340         1.545910
 H         4.362435        -0.999930         1.412110
 H         2.463582         2.337087         1.515952
 H         3.916701         2.804725         0.551696
 H         2.174977         1.680756        -1.111713
 H         4.180689        -0.279945        -1.309068
