19
Iteration:  3872charge 0 multiplicity 1
 C        -0.003252         0.433322         0.029039
 C         1.427894        -0.073386         0.121111
 C         2.008313         0.006003         1.605145
 C         3.482252        -0.086724         1.275099
 O         4.052757         1.235890         1.188780
 C         3.157601         1.814599         0.204453
 C         2.563953         0.766377        -0.644514
 C         3.305952        -0.508400        -0.277565
 O         2.051878        -1.354388        -0.319718
 H        -0.050739         1.485302         0.495373
 H        -0.170762         0.485743        -1.051272
 H        -0.832353        -0.215807         0.492328
 H         1.638376         0.950831         1.981528
 H         1.542390        -0.885246         2.081963
 H         3.997982        -0.909674         1.915358
 H         2.372977         2.314488         0.802875
 H         3.790188         2.508253        -0.352425
 H         2.238632         1.003039        -1.643877
 H         4.199312        -1.006294        -0.775905
