19
Iteration:   663charge 0 multiplicity 1
 C        -0.059533         0.186822        -0.112827
 C         1.415953         0.012980         0.174802
 C         1.998844        -0.185866         1.576209
 C         3.586457        -0.251062         1.196312
 O         4.127373         1.043312         1.251862
 C         3.205252         1.929696         0.522775
 C         2.474354         0.968667        -0.531515
 C         3.303569        -0.349854        -0.347248
 O         1.986611        -1.104322        -0.526179
 H        -0.674031        -0.547005         0.390184
 H        -0.320151         1.199243         0.183355
 H        -0.320711         0.172694        -1.154757
 H         1.722187         0.641191         2.357230
 H         1.549518        -1.132984         2.007819
 H         4.244790        -0.887495         1.725999
 H         2.415106         2.397377         1.051464
 H         3.827142         2.786166         0.151801
 H         2.221455         1.422500        -1.488176
 H         4.124624        -0.752096        -0.978047
