19
Iteration:  3318charge 0 multiplicity 1
 C        -0.127973         0.090995        -0.076886
 C         1.439782         0.066237         0.154239
 C         1.968244         0.195367         1.602806
 C         3.465582        -0.088060         1.313636
 O         4.126039         1.110850         1.139352
 C         3.323213         1.936039         0.065691
 C         2.575806         0.779672        -0.594395
 C         3.252035        -0.574085        -0.156719
 O         1.985397        -1.245608        -0.251221
 H        -0.776288        -0.821994        -0.355253
 H        -0.621626         0.605140         0.752345
 H        -0.408557         0.864358        -0.832245
 H         1.883944         1.154966         2.021599
 H         1.460134        -0.481398         2.348298
 H         4.047751        -0.679370         2.028494
 H         2.887964         2.703233         0.694978
 H         4.194527         2.342787        -0.544379
 H         2.392809         0.659299        -1.707105
 H         4.105849        -1.006205        -0.711091
