19
Iteration:  1085charge 0 multiplicity 1
 C         0.043773         0.385019        -0.089346
 C         1.423270        -0.004553         0.223875
 C         2.001095        -0.091547         1.619797
 C         3.455802        -0.165334         1.210938
 O         4.001472         1.238626         1.162467
 C         3.227256         1.975664         0.233832
 C         2.551607         0.817126        -0.591871
 C         3.323620        -0.597041        -0.228842
 O         1.977033        -1.320905        -0.316182
 H        -0.116267         1.412790        -0.433280
 H        -0.226263        -0.234541        -1.036197
 H        -0.666856         0.243163         0.648283
 H         1.859275         0.797939         2.209109
 H         1.633041        -1.082818         2.214985
 H         4.218634        -0.603700         1.902985
 H         2.415111         2.630361         0.717627
 H         4.009740         2.551189        -0.354773
 H         2.371800         0.968645        -1.658132
 H         4.232428        -1.140555        -0.685004
