19
Iteration:  1639
 C        -0.060880         0.216616        -0.124231
 C         1.422537         0.049312         0.192708
 C         1.975368        -0.031203         1.659262
 C         3.425743        -0.087820         1.225205
 O         4.115223         1.181494         1.168822
 C         3.267459         1.940320         0.115098
 C         2.601013         0.802098        -0.559870
 C         3.286378        -0.564732        -0.200539
 O         1.960449        -1.222968        -0.256567
 H        -0.460565         0.812430         0.661267
 H        -0.099696         0.760261        -1.086939
 H        -0.572731        -0.825757        -0.112073
 H         1.872492         0.836098         2.391158
 H         1.607424        -0.951637         1.964385
 H         4.058099        -0.729517         1.825211
 H         2.573734         2.582964         0.626206
 H         3.948584         2.384116        -0.653446
 H         2.471589         0.962982        -1.556310
 H         4.085879        -0.999839        -0.737938
