19
Iteration:  1423charge 0 multiplicity 1
 C         0.033555         0.361875         0.013069
 C         1.463619         0.050099         0.147248
 C         2.046633        -0.138197         1.679053
 C         3.447545        -0.116095         1.283925
 O         3.910161         1.303877         1.210423
 C         3.261906         1.904474         0.030632
 C         2.577792         0.713818        -0.592042
 C         3.295411        -0.632364        -0.180480
 O         1.983556        -1.235999        -0.363951
 H        -0.007690         1.224362         0.642330
 H        -0.300692         0.675551        -1.027486
 H        -0.646711        -0.318766         0.272355
 H         1.832653         0.556040         2.497857
 H         1.579337        -1.101500         1.975523
 H         4.259845        -0.603338         1.861822
 H         2.618555         2.780880         0.214922
 H         4.052780         2.360160        -0.624183
 H         2.391857         0.781200        -1.627180
 H         4.104495        -1.101660        -0.699332
