19
Iteration:   439charge 0 multiplicity 1
 C         0.010979         0.337948         0.155329
 C         1.485881        -0.015388         0.076975
 C         2.087367        -0.454129         1.511271
 C         3.495034        -0.293139         1.153391
 O         3.814926         1.027097         1.451585
 C         3.198417         1.934259         0.446871
 C         2.539216         1.035030        -0.453102
 C         3.275160        -0.297096        -0.451165
 O         2.101003        -1.025521        -0.708643
 H        -0.488897        -0.192218         0.949746
 H         0.110303         1.406417         0.297063
 H        -0.630840         0.205313        -0.830653
 H         1.719709         0.054913         2.424956
 H         1.832217        -1.659010         1.587489
 H         4.273050        -0.895878         1.608837
 H         2.518355         2.709194         0.942944
 H         4.044028         2.489437        -0.053649
 H         2.441268         1.430996        -1.366456
 H         4.122671        -0.481586        -1.123378
