19
Iteration:  2325charge 0 multiplicity 1
 C        -0.138891         0.069849        -0.068183
 C         1.423861         0.060352         0.251513
 C         1.963370         0.166696         1.662557
 C         3.455026        -0.083979         1.323669
 O         4.060015         1.080935         1.156104
 C         3.428517         1.871971         0.105221
 C         2.554445         0.812041        -0.545685
 C         3.274931        -0.491140        -0.257961
 O         1.971809        -1.192364        -0.376441
 H        -0.749764         0.584531         0.649380
 H        -0.284114         0.501965        -1.150778
 H        -0.433323        -1.015893         0.033585
 H         1.805474         1.210768         2.111081
 H         1.588294        -0.556077         2.361523
 H         4.163996        -0.756606         1.793905
 H         2.837321         2.638801         0.556968
 H         4.250298         2.246531        -0.536922
 H         2.343604         0.973560        -1.544876
 H         4.139001        -0.852623        -0.795936
