19
Iteration:  2160charge 0 multiplicity 1
 C        -0.134214         0.075596        -0.037194
 C         1.346860         0.064854         0.205546
 C         1.956257         0.075697         1.578043
 C         3.385420        -0.139672         1.175601
 O         4.071890         1.150112         1.252669
 C         3.471653         1.883600         0.156585
 C         2.579018         0.933672        -0.586381
 C         3.270033        -0.485685        -0.249346
 O         2.002970        -1.258832        -0.294904
 H        -0.490463         1.009950        -0.467798
 H        -0.232053        -0.710340        -0.818804
 H        -0.734894        -0.192963         0.925065
 H         1.847778         1.084385         2.199787
 H         1.699579        -0.749308         2.206774
 H         4.039085        -0.877714         1.770803
 H         2.980384         2.704743         0.642753
 H         4.229911         2.376846        -0.585764
 H         2.538637         1.137646        -1.602613
 H         4.127230        -0.878356        -0.899179
