19
Iteration:  1513
 C        -0.093497         0.080058        -0.153980
 C         1.387389         0.077930         0.148906
 C         1.934598         0.068480         1.601458
 C         3.496986        -0.088295         1.239644
 O         4.225752         1.081954         1.093128
 C         3.353476         1.931197         0.312729
 C         2.518623         0.874756        -0.580023
 C         3.219586        -0.453563        -0.211836
 O         1.936952        -1.256841        -0.242290
 H        -0.407094         1.052260        -0.535767
 H        -0.167697        -0.685008        -0.895920
 H        -0.594320        -0.309414         0.620082
 H         1.842374         0.989000         2.094680
 H         1.449906        -0.598204         2.346529
 H         4.090905        -0.817174         1.793962
 H         2.730690         2.547236         0.978465
 H         4.000960         2.726568        -0.205383
 H         2.297292         0.976571        -1.719242
 H         4.057327        -0.909742        -0.768048
