19
Iteration:  2453
 C         0.035504         0.305592         0.014059
 C         1.467699        -0.022669         0.183946
 C         1.959517        -0.050948         1.640639
 C         3.391084        -0.106524         1.293006
 O         3.971342         1.266397         1.167020
 C         3.340440         1.910763         0.075304
 C         2.612529         0.772295        -0.624676
 C         3.253017        -0.616047        -0.212410
 O         1.998160        -1.231006        -0.350535
 H        -0.086418         1.182863         0.533997
 H        -0.455697         0.267759        -0.951461
 H        -0.480819        -0.484938         0.624559
 H         1.807280         0.930020         2.209448
 H         1.632637        -0.925674         2.091253
 H         4.089338        -0.585219         1.984846
 H         2.676267         2.660956         0.352331
 H         4.053686         2.406062        -0.531302
 H         2.189968         0.982711        -1.556690
 H         4.049686        -1.248075        -0.656885
