19
Iteration:  1068
 C        -0.067347         0.240164        -0.155515
 C         1.403823        -0.018916         0.176216
 C         1.997689         0.008783         1.652972
 C         3.513572        -0.091126         1.277251
 O         4.074601         1.179168         1.269675
 C         3.327005         1.910978         0.191208
 C         2.537173         0.798881        -0.562100
 C         3.211390        -0.482135        -0.304212
 O         2.019575        -1.282885        -0.340179
 H         0.056626         1.256113        -0.542299
 H        -0.479652        -0.499243        -0.767281
 H        -0.631815         0.237641         0.895009
 H         1.677575         0.937120         2.204854
 H         1.586652        -0.802916         2.197645
 H         4.087053        -0.894561         1.788371
 H         2.644089         2.533283         0.721831
 H         4.013854         2.395940        -0.482360
 H         2.234893         0.985792        -1.598017
 H         3.934036        -0.829970        -0.990818
