19
Iteration:  2504charge 0 multiplicity 1
 C        -0.078135         0.047156        -0.166833
 C         1.378528         0.059642         0.202334
 C         1.929780         0.115058         1.702332
 C         3.478771        -0.090950         1.256151
 O         4.243228         1.084403         1.080646
 C         3.373447         1.975045         0.172152
 C         2.541767         0.887856        -0.595985
 C         3.205981        -0.497538        -0.219061
 O         1.912294        -1.267440        -0.202051
 H        -0.800438         0.780948         0.424895
 H        -0.168424         0.286103        -1.210104
 H        -0.407330        -1.012468        -0.057579
 H         1.801188         1.042147         2.242697
 H         1.377432        -0.761562         2.216905
 H         4.224709        -0.676011         1.831357
 H         2.772215         2.700635         0.946875
 H         4.011440         2.607777        -0.543433
 H         2.421380         1.097286        -1.731281
 H         4.027518        -1.031370        -0.782353
