19
Iteration:  4319charge 0 multiplicity 1
 C        -0.065560         0.187838         0.090635
 C         1.445850         0.048027         0.135775
 C         1.943169         0.039657         1.598835
 C         3.483350        -0.097097         1.333962
 O         4.081906         1.252320         1.099632
 C         3.344686         1.862998         0.043781
 C         2.627230         0.760167        -0.651628
 C         3.257490        -0.534780        -0.106967
 O         1.927240        -1.245869        -0.315821
 H        -0.527202        -0.708696        -0.423872
 H        -0.538327         0.359388         1.131369
 H        -0.255396         1.128316        -0.596698
 H         1.569945         0.792075         2.292380
 H         1.622438        -0.927141         1.853203
 H         3.950246        -0.700776         2.154639
 H         2.629927         2.622598         0.470517
 H         4.018835         2.507845        -0.618775
 H         2.573524         0.797877        -1.800313
 H         4.083604        -1.111577        -0.731734
