19
Iteration:  2909
 C         0.072912         0.371602         0.016329
 C         1.458664         0.065058         0.173361
 C         1.980784        -0.078300         1.553550
 C         3.436787        -0.137738         1.348246
 O         4.054056         1.305581         1.123355
 C         3.182890         1.903945         0.124857
 C         2.586085         0.726519        -0.648176
 C         3.276429        -0.609869        -0.161012
 O         1.967336        -1.324080        -0.325082
 H        -0.224990         1.160131         0.660016
 H        -0.084019         0.684182        -1.041201
 H        -0.477392        -0.567463         0.292365
 H         1.681257         0.845484         2.155068
 H         1.505192        -0.940243         2.078330
 H         4.104576        -0.551529         2.178343
 H         2.550473         2.637865         0.530870
 H         3.771043         2.646214        -0.466813
 H         2.469244         0.643456        -1.660775
 H         4.134273        -1.097159        -0.781333
