19
Iteration:   637
 C        -0.015821         0.341022        -0.039096
 C         1.435617         0.061303         0.234732
 C         2.016350        -0.345985         1.571014
 C         3.551619        -0.239421         1.113346
 O         3.997123         1.157419         1.322104
 C         3.161702         1.950901         0.443613
 C         2.550178         0.903640        -0.429603
 C         3.333362        -0.445024        -0.393564
 O         2.008298        -1.169851        -0.586547
 H        -0.663534         0.266530         0.942199
 H        -0.053091         1.400013        -0.490756
 H        -0.462910        -0.237462        -0.867921
 H         1.827245         0.216645         2.468396
 H         1.703188        -1.447478         1.842811
 H         4.295790        -0.841689         1.726336
 H         2.317230         2.646634         0.792361
 H         3.694740         2.721941        -0.133386
 H         2.424163         1.513826        -1.379655
 H         4.142101        -0.698240        -1.071622
