19
Iteration:   186charge 0 multiplicity 1
 C        -0.058872         0.035245        -0.063876
 C         1.399865         0.094207         0.193073
 C         2.009825        -0.507408         1.466667
 C         3.539440        -0.301711         1.000527
 O         4.083348         0.902711         1.418790
 C         3.296489         1.928220         0.800798
 C         2.411116         1.175344        -0.227726
 C         3.241255        -0.099775        -0.499909
 O         2.018171        -0.877058        -0.881318
 H        -0.677925         0.415091         0.795983
 H        -0.177823         0.550903        -1.042837
 H        -0.278050        -1.081499        -0.159793
 H         1.848263         0.023261         2.469350
 H         1.828450        -1.582355         1.642071
 H         4.067381        -1.202145         1.395068
 H         2.889632         2.384036         1.673722
 H         4.089983         2.669859         0.329822
 H         2.232872         1.748322        -1.053566
 H         4.187155        -0.153296        -1.091933
