19
Iteration:   755charge 0 multiplicity 1
 C        -0.013244         0.329969        -0.010227
 C         1.438855        -0.039726         0.140301
 C         1.968706        -0.271977         1.545966
 C         3.485245        -0.206958         1.193677
 O         3.933129         1.186855         1.360308
 C         3.248546         1.910290         0.322654
 C         2.565130         0.873394        -0.519106
 C         3.303996        -0.432112        -0.373267
 O         2.057451        -1.117394        -0.495088
 H        -0.070863         0.753054        -1.064800
 H        -0.568927        -0.570601         0.352280
 H        -0.224973         1.017735         0.902546
 H         1.743766         0.487988         2.249091
 H         1.672918        -1.197576         2.039445
 H         4.254705        -0.990573         1.581234
 H         2.647728         2.736202         0.791495
 H         4.106355         2.385871        -0.159252
 H         2.145549         1.064903        -1.568115
 H         4.180498        -0.688834        -0.964852
