19
Iteration:  3349
 C        -0.045592         0.272488        -0.046041
 C         1.505858         0.140178         0.189149
 C         1.890221         0.089424         1.617336
 C         3.498551        -0.094450         1.314615
 O         4.071663         1.210166         1.146533
 C         3.295666         1.916904         0.097009
 C         2.593182         0.742016        -0.620522
 C         3.238432        -0.609269        -0.224890
 O         1.982641        -1.401454        -0.234863
 H        -0.632784        -0.717025        -0.082169
 H        -0.422774         1.007135         0.711292
 H        -0.240486         0.641708        -1.061166
 H         1.849745         1.084969         2.049893
 H         1.349627        -0.736485         2.034329
 H         4.248725        -0.650786         1.925785
 H         2.625842         2.645229         0.608721
 H         3.972934         2.591055        -0.536918
 H         2.262248         0.745925        -1.753289
 H         4.111427        -0.982816        -0.792361
