19
Iteration:  2404charge 0 multiplicity 1
 C         0.061386         0.368281        -0.038949
 C         1.460399        -0.049690         0.280293
 C         1.965769        -0.056101         1.687428
 C         3.504737        -0.101087         1.212700
 O         3.918723         1.259136         1.181257
 C         3.253188         1.900107         0.134818
 C         2.553243         0.774525        -0.563706
 C         3.294216        -0.604666        -0.268959
 O         1.982804        -1.297869        -0.322602
 H         0.267618         1.497317        -0.231524
 H        -0.286484        -0.128816        -0.961056
 H        -0.740006         0.314374         0.660596
 H         1.699936         0.793862         2.200540
 H         1.706256        -1.108733         2.085005
 H         4.265521        -0.649279         1.766724
 H         2.734823         2.818137         0.352254
 H         4.061842         2.300712        -0.566462
 H         2.457800         0.944060        -1.715295
 H         3.992631        -0.882182        -1.038968
