19
Iteration:  1072charge 0 multiplicity 1
 C        -0.053088         0.276288        -0.123702
 C         1.450022        -0.028872         0.174066
 C         2.011788        -0.016450         1.635184
 C         3.516118        -0.101491         1.279566
 O         4.050281         1.188998         1.248708
 C         3.321746         1.941056         0.202906
 C         2.541247         0.787152        -0.579756
 C         3.185310        -0.490087        -0.268362
 O         2.003929        -1.314888        -0.340596
 H         0.122995         1.276505        -0.548764
 H        -0.476740        -0.466495        -0.864469
 H        -0.679162         0.263428         0.718314
 H         1.777325         0.877994         2.178733
 H         1.546310        -0.829786         2.195829
 H         4.075688        -0.826209         1.788904
 H         2.638429         2.651353         0.748859
 H         4.019633         2.605239        -0.406170
 H         2.150933         0.953843        -1.619251
 H         3.988400        -0.846255        -0.950923
