19
Iteration:  4459charge 0 multiplicity 1
 C        -0.163441        -0.012492        -0.073884
 C         1.332701         0.145881         0.193998
 C         1.950282         0.111250         1.691209
 C         3.472169        -0.080632         1.294302
 O         4.146111         1.239614         1.089709
 C         3.479124         1.858591         0.029530
 C         2.612456         0.777179        -0.584386
 C         3.232402        -0.541866        -0.186753
 O         1.946898        -1.199874        -0.222452
 H        -0.343336         0.997519        -0.440519
 H        -0.450096        -0.702894        -0.798338
 H        -0.738546        -0.154379         0.871324
 H         1.836379         1.070155         2.372854
 H         1.490174        -0.732111         2.261545
 H         4.086889        -0.689566         2.022431
 H         2.906703         2.778661         0.299142
 H         4.141078         2.176669        -0.831812
 H         2.319352         0.829740        -1.665377
 H         3.983938        -1.236248        -0.727353
