19
Iteration:  2676charge 0 multiplicity 1
 C        -0.025393         0.014113        -0.047115
 C         1.431263         0.085648         0.163056
 C         1.931064         0.187542         1.584844
 C         3.428778        -0.058295         1.252528
 O         4.203250         1.148931         1.108331
 C         3.377238         1.890848         0.210126
 C         2.559669         0.805592        -0.589314
 C         3.228066        -0.549774        -0.204280
 O         1.895919        -1.203747        -0.292321
 H        -0.705307         0.683012         0.612001
 H        -0.360526         0.217810        -1.049628
 H        -0.389828        -0.979259         0.206652
 H         1.398504         0.977313         2.116671
 H         1.555850        -0.766655         2.214753
 H         3.898714        -0.825186         1.857255
 H         2.914737         2.707709         0.977518
 H         4.020205         2.510573        -0.544354
 H         2.426931         0.881150        -1.758707
 H         4.196834        -0.971280        -0.524255
