19
Iteration:  4824
 C         0.047391         0.417516        -0.077506
 C         1.441816         0.005480         0.227304
 C         1.996239         0.203964         1.637292
 C         3.478736        -0.013220         1.277628
 O         3.969569         1.348610         1.021771
 C         3.298201         1.790025        -0.077284
 C         2.571533         0.568530        -0.671472
 C         3.244512        -0.674663        -0.077801
 O         1.962257        -1.424834        -0.049647
 H        -0.129149         0.758139        -1.125456
 H        -0.645731        -0.420784         0.098554
 H        -0.304385         1.129206         0.596303
 H         1.979762         1.131626         2.212164
 H         1.716763        -0.658792         2.333490
 H         4.314567        -0.570190         1.897587
 H         2.753412         2.709998         0.153673
 H         3.977316         2.161916        -0.839596
 H         2.050047         0.740111        -1.623200
 H         4.139315        -1.276275        -0.504502
