19
Iteration:  3230
 C         0.045343         0.355403        -0.008843
 C         1.478175         0.017495         0.107617
 C         1.990687        -0.033157         1.656690
 C         3.410706        -0.059481         1.339658
 O         4.006577         1.269244         1.108619
 C         3.260660         1.877659         0.077214
 C         2.623711         0.731329        -0.706587
 C         3.270793        -0.583978        -0.126662
 O         1.949425        -1.328160        -0.233448
 H        -0.560981        -0.567319         0.328540
 H         0.002449         1.295173         0.577879
 H        -0.255757         0.477838        -1.052479
 H         1.725369         0.942538         2.009510
 H         1.430514        -0.838331         2.200214
 H         4.013190        -0.684006         2.053460
 H         2.503085         2.561175         0.494983
 H         3.887010         2.461044        -0.675019
 H         2.530634         0.768397        -1.887877
 H         4.173011        -1.077293        -0.513873
