19
Iteration:  2747
 C         0.035286         0.379106        -0.046420
 C         1.426753        -0.017170         0.225099
 C         1.959086        -0.172449         1.740189
 C         3.442561        -0.049897         1.216656
 O         3.974411         1.278574         1.171168
 C         3.307078         1.946393         0.052757
 C         2.581970         0.736495        -0.652861
 C         3.295895        -0.542376        -0.216294
 O         1.986118        -1.297756        -0.275973
 H         0.011310         1.418281         0.140452
 H        -0.167697         0.153613        -1.182972
 H        -0.783988        -0.120514         0.602835
 H         1.659771         0.417873         2.666634
 H         1.656140        -1.154481         2.007335
 H         4.290361        -0.596477         1.731718
 H         2.578847         2.711850         0.382981
 H         4.038241         2.498394        -0.553577
 H         2.282011         0.752992        -1.654560
 H         4.186377        -1.073116        -0.685494
