19
Iteration:  3773
 C        -0.078018         0.110320        -0.015772
 C         1.385522         0.048873         0.094867
 C         1.920505         0.004001         1.631734
 C         3.409983        -0.073046         1.328062
 O         4.145576         1.111642         1.202051
 C         3.375498         1.899899         0.202776
 C         2.567062         0.889225        -0.562581
 C         3.252554        -0.493854        -0.250047
 O         1.975744        -1.168708        -0.437397
 H        -0.660631         0.443081        -0.974117
 H        -0.315528        -0.963784         0.053430
 H        -0.456013         0.580016         0.975087
 H         1.729708         0.999204         2.053530
 H         1.732196        -0.924685         2.131703
 H         4.158359        -0.908969         1.655337
 H         2.894336         2.733612         0.778435
 H         4.203631         2.386087        -0.318654
 H         2.246646         1.017965        -1.599399
 H         4.234543        -1.007722        -0.537623
