19
Iteration:  4600
 C        -0.072255        -0.010141        -0.029901
 C         1.372663         0.028935         0.239608
 C         1.949069         0.275155         1.631031
 C         3.384671        -0.083943         1.203470
 O         4.130219         1.222523         1.167562
 C         3.571285         1.879929         0.014868
 C         2.504850         0.768884        -0.613162
 C         3.178601        -0.525020        -0.278063
 O         1.933061        -1.255910        -0.119960
 H        -0.845012        -0.083861         0.825295
 H        -0.334569         0.877989        -0.554251
 H        -0.173828        -0.835887        -0.834524
 H         1.934589         1.332008         2.136232
 H         1.638489        -0.409372         2.435616
 H         4.004889        -0.828051         1.812382
 H         3.177641         2.844060         0.461799
 H         4.249530         2.081916        -0.840758
 H         2.376529         0.754023        -1.761450
 H         3.995663        -1.138804        -0.841609
