19
Iteration:  4705charge 0 multiplicity 1
 C         0.018409         0.385366        -0.096429
 C         1.475656         0.029965         0.280269
 C         1.982084         0.014099         1.742261
 C         3.474797         0.002640         1.274720
 O         4.038670         1.336129         1.035087
 C         3.239778         1.858601        -0.094113
 C         2.638319         0.591670        -0.593308
 C         3.213088        -0.666827        -0.133903
 O         1.956155        -1.296137        -0.139028
 H        -0.522572        -0.512837        -0.438669
 H        -0.543941         0.824533         0.721378
 H        -0.028888         1.096859        -0.877818
 H         1.692164         0.750313         2.461310
 H         1.735479        -1.016067         2.069723
 H         4.132343        -0.466943         2.125374
 H         2.575475         2.732901        -0.012973
 H         3.972707         2.155675        -0.906854
 H         2.349222         0.501054        -1.642041
 H         3.922418        -1.226759        -0.777179
