19
Iteration:   179charge 0 multiplicity 1
 C        -0.035917         0.040542        -0.055062
 C         1.404615         0.063763         0.168415
 C         2.061438        -0.493984         1.435961
 C         3.526320        -0.351534         0.997779
 O         4.075465         0.910186         1.437246
 C         3.289824         1.929306         0.794047
 C         2.434968         1.183995        -0.214116
 C         3.256011        -0.097992        -0.426936
 O         1.991234        -0.860395        -0.874839
 H        -0.570204         0.645662         0.624761
 H        -0.295915         0.338297        -1.067814
 H        -0.521842        -0.953864         0.093626
 H         1.826447        -0.111951         2.363692
 H         1.721819        -1.555212         1.388377
 H         4.345645        -1.080824         1.159234
 H         2.666067         2.553930         1.526196
 H         3.977439         2.629321         0.309511
 H         2.099814         1.768294        -1.113662
 H         4.143911        -0.248514        -1.085679
