19
Iteration:  1541charge 0 multiplicity 1
 C        -0.050353         0.184533        -0.119394
 C         1.390260         0.033820         0.207207
 C         1.933767         0.035322         1.680656
 C         3.527379        -0.099456         1.224743
 O         4.105206         1.142013         1.176506
 C         3.316664         1.845070         0.194395
 C         2.514325         0.865444        -0.588561
 C         3.219877        -0.496850        -0.227904
 O         2.018283        -1.247298        -0.329219
 H        -0.253743         1.250039         0.017476
 H        -0.202893        -0.172000        -1.195510
 H        -0.680913        -0.560249         0.586271
 H         1.858252         1.133699         2.053767
 H         1.511145        -0.552924         2.478871
 H         4.165019        -0.817608         1.736170
 H         2.745302         2.693273         0.616848
 H         4.032642         2.289510        -0.416870
 H         2.307324         1.059369        -1.571866
 H         4.026504        -0.993964        -0.709153
