19
Iteration:   187charge 0 multiplicity 1
 C        -0.067992         0.038038        -0.062082
 C         1.399374         0.094406         0.196985
 C         2.003483        -0.507607         1.477833
 C         3.537084        -0.298131         1.004210
 O         4.087023         0.900406         1.417281
 C         3.297300         1.928319         0.803280
 C         2.410900         1.176498        -0.231871
 C         3.237879        -0.102299        -0.514639
 O         2.026258        -0.875785        -0.878855
 H        -0.659399         0.368710         0.764556
 H        -0.180613         0.579775        -1.017387
 H        -0.237358        -1.101054        -0.205087
 H         1.857504         0.022400         2.410133
 H         1.837108        -1.588319         1.679326
 H         4.034911        -1.209679         1.424245
 H         2.896105         2.377263         1.696767
 H         4.088856         2.676675         0.318311
 H         2.246021         1.738097        -1.049038
 H         4.191403        -0.136119        -1.128683
