19
Iteration:  1798charge 0 multiplicity 1
 C        -0.025640         0.268293        -0.065160
 C         1.392867         0.076447         0.195403
 C         1.989461        -0.033783         1.654673
 C         3.513708        -0.048376         1.250195
 O         4.089079         1.192704         1.165095
 C         3.248874         1.915996         0.178451
 C         2.571253         0.765481        -0.598411
 C         3.297240        -0.600829        -0.207048
 O         1.975574        -1.262415        -0.370236
 H        -0.359075         1.213823         0.503365
 H        -0.226339         0.408674        -1.110976
 H        -0.760958        -0.604681         0.198798
 H         1.731255         0.841731         2.259802
 H         1.547769        -0.833534         2.218758
 H         4.229217        -0.664678         1.743765
 H         2.526100         2.346176         0.854400
 H         3.771367         2.579190        -0.384014
 H         2.231785         0.910757        -1.731155
 H         4.132724        -1.139207        -0.565000
