19
Iteration:  1780charge 0 multiplicity 1
 C         0.034289         0.438545        -0.039098
 C         1.474456        -0.042615         0.195766
 C         1.999877        -0.058043         1.624446
 C         3.472126        -0.227915         1.267404
 O         3.966272         1.251235         1.169750
 C         3.148890         1.893281         0.153947
 C         2.580113         0.772073        -0.591222
 C         3.274645        -0.533205        -0.306006
 O         2.048599        -1.301820        -0.284382
 H        -0.082050         1.407725         0.298026
 H        -0.227037         0.352582        -1.068581
 H        -0.631966        -0.195129         0.638091
 H         1.837286         0.903249         2.314462
 H         1.695255        -0.969611         2.091251
 H         4.097628        -0.766332         2.015626
 H         2.448244         2.670762         0.548760
 H         3.989603         2.418020        -0.445425
 H         2.429487         0.932309        -1.639894
 H         4.097739        -0.794125        -0.975470
