19
Iteration:   149
 C        -0.071372         0.242267         0.102381
 C         1.424002         0.038887         0.217965
 C         2.099678        -0.595458         1.420110
 C         3.570108        -0.313118         0.980684
 O         3.928168         0.928343         1.514311
 C         3.185844         1.899594         0.829020
 C         2.486869         1.127191        -0.303943
 C         3.338963        -0.111883        -0.563506
 O         2.090330        -0.936133        -0.977600
 H        -0.363239         1.365879        -0.087224
 H        -0.492301        -0.290748        -0.764007
 H        -0.610571        -0.125615         0.959717
 H         1.914614        -0.135607         2.484673
 H         1.771430        -1.646846         1.407519
 H         4.397077        -0.947440         1.246006
 H         2.349945         2.303878         1.433471
 H         3.803613         2.697058         0.543081
 H         2.039396         1.738084        -1.199228
 H         4.194473        -0.218988        -1.210814
