19
Iteration:  1454
 C        -0.017901         0.331857         0.042142
 C         1.460056        -0.010976         0.163534
 C         1.935956        -0.089087         1.621843
 C         3.404610        -0.094165         1.247418
 O         3.907651         1.226225         1.250536
 C         3.371329         1.925770         0.088780
 C         2.534174         0.730676        -0.577236
 C         3.348727        -0.549119        -0.342334
 O         2.073794        -1.269063        -0.300338
 H        -0.035769         1.415040        -0.007724
 H        -0.564727         0.100572        -0.889631
 H        -0.694725         0.188227         0.878983
 H         1.962055         0.872362         2.279878
 H         1.578186        -1.031011         2.002491
 H         4.140561        -0.631453         1.892276
 H         2.714100         2.842712         0.321821
 H         4.155359         2.206379        -0.550140
 H         2.164278         0.904820        -1.526757
 H         4.139195        -1.064945        -0.925473
