19
Iteration:  1622
 C        -0.017810         0.354201        -0.031345
 C         1.424401        -0.011845         0.173449
 C         2.000437        -0.031380         1.644981
 C         3.544596        -0.090684         1.336830
 O         3.985203         1.285126         1.263738
 C         3.339802         1.854551         0.094540
 C         2.524833         0.764005        -0.650669
 C         3.262441        -0.534133        -0.284342
 O         1.987148        -1.336613        -0.336397
 H        -0.604457         0.886541         0.805273
 H        -0.187703         0.995042        -0.962114
 H        -0.544579        -0.524871        -0.139598
 H         1.651285         0.855327         2.124763
 H         1.627964        -1.007078         2.216378
 H         4.220323        -0.720488         1.968271
 H         2.630432         2.680885         0.420363
 H         4.155981         2.380794        -0.387670
 H         2.142378         0.704689        -1.792699
 H         4.113755        -1.022936        -0.882681
