19
Iteration:   523charge 0 multiplicity 1
 C        -0.087048         0.105751        -0.177635
 C         1.372776         0.034237         0.144653
 C         2.045960        -0.202012         1.680372
 C         3.534716        -0.228976         1.121732
 O         4.164099         1.004909         1.266008
 C         3.302870         1.886669         0.644627
 C         2.425152         1.028136        -0.402302
 C         3.248228        -0.270951        -0.458414
 O         1.995384        -1.087410        -0.601181
 H        -0.195115         0.204136        -1.236640
 H        -0.617734        -0.833514         0.084441
 H        -0.591339         1.046266         0.216027
 H         1.670475         0.631270         2.264009
 H         1.753428        -1.035278         2.132051
 H         4.094164        -1.073296         1.500122
 H         2.692443         2.419692         1.416226
 H         3.938758         2.652752         0.270522
 H         2.075968         1.544044        -1.326220
 H         4.226644        -0.409513        -0.995714
