19
Iteration:  4739charge 0 multiplicity 1
 C        -0.148206         0.138789         0.048306
 C         1.363936         0.051140         0.173246
 C         1.956291         0.296511         1.622411
 C         3.408422        -0.037422         1.296423
 O         4.081129         1.208911         1.078335
 C         3.394553         1.870252        -0.036668
 C         2.673385         0.700423        -0.646777
 C         3.208487        -0.624510        -0.178066
 O         2.016080        -1.312107        -0.152050
 H        -0.602521        -0.826608        -0.367505
 H        -0.502945         0.260320         1.028159
 H        -0.412186         0.988509        -0.592774
 H         1.943688         1.298361         2.075187
 H         1.637997        -0.430198         2.363957
 H         4.076030        -0.706248         2.046114
 H         2.947782         2.854160         0.293991
 H         4.161957         2.005030        -0.867034
 H         2.551639         0.642354        -1.764936
 H         4.065390        -1.114992        -0.773658
