19
Iteration:   193charge 0 multiplicity 1
 C        -0.091156         0.026920        -0.078200
 C         1.391213         0.069056         0.215062
 C         1.993549        -0.512060         1.508009
 C         3.500696        -0.312989         1.028453
 O         4.120692         0.883975         1.414081
 C         3.307783         1.935007         0.820512
 C         2.435848         1.180863        -0.237561
 C         3.232658        -0.117675        -0.587985
 O         2.078346        -0.854198        -0.854144
 H        -0.786227         0.237122         0.847563
 H        -0.343179         0.736989        -0.886947
 H        -0.103968        -0.959174        -0.449042
 H         1.808346         0.248030         2.399465
 H         1.804202        -1.538147         1.794149
 H         4.028008        -1.144633         1.462814
 H         2.792534         2.446748         1.684550
 H         3.893928         2.615219         0.305790
 H         2.170099         1.802382        -1.227152
 H         4.014812        -0.082430        -1.314817
