19
Iteration:  1045
 C        -0.169659         0.068380        -0.067119
 C         1.420537         0.117871         0.174672
 C         1.933997         0.018360         1.593499
 C         3.434583        -0.152997         1.247342
 O         4.089305         1.118690         1.189548
 C         3.444539         1.920731         0.205358
 C         2.566628         0.869764        -0.557929
 C         3.280970        -0.471142        -0.196498
 O         2.007409        -1.162667        -0.370228
 H        -0.397968         0.874255        -0.750114
 H        -0.175582        -0.894049        -0.548320
 H        -0.853466        -0.050285         0.872599
 H         1.865584         0.956337         2.188364
 H         1.369175        -0.759302         2.126969
 H         3.958636        -0.938996         1.909707
 H         2.949948         2.766124         0.690014
 H         4.178302         2.193018        -0.532693
 H         2.189487         1.087976        -1.540951
 H         4.138454        -0.915866        -0.711488
