19
Iteration:  4666
 C         0.046543         0.407669        -0.074161
 C         1.415135         0.004491         0.220550
 C         2.019323         0.121057         1.657307
 C         3.473907        -0.055009         1.287854
 O         4.028561         1.319491         1.102380
 C         3.239289         1.821233        -0.014474
 C         2.486526         0.601645        -0.638894
 C         3.297287        -0.691599        -0.241167
 O         2.000733        -1.341461        -0.078088
 H        -0.650629        -0.512166        -0.004100
 H        -0.303906         1.123777         0.649722
 H         0.060903         0.843696        -1.153378
 H         1.819515         1.156456         2.106776
 H         1.435853        -0.645466         2.166194
 H         4.112616        -0.612092         1.950613
 H         2.464731         2.601741         0.200340
 H         4.056662         2.405930        -0.465577
 H         2.341699         0.666795        -1.759030
 H         4.163870        -1.134540        -0.830315
