19
Iteration:  1337
 C        -0.090956         0.038427        -0.063500
 C         1.412499         0.098350         0.126387
 C         1.963209         0.095908         1.705862
 C         3.428715        -0.062309         1.323826
 O         4.130610         1.059366         1.117853
 C         3.378077         1.911593         0.125055
 C         2.562432         0.860107        -0.588097
 C         3.279369        -0.530976        -0.210154
 O         1.932401        -1.131423        -0.322426
 H        -0.735496         0.559647         0.659840
 H        -0.386827         0.273484        -1.183177
 H        -0.201222        -1.036143         0.200279
 H         1.716080         0.930632         2.188332
 H         1.533855        -0.805917         2.132201
 H         4.032253        -0.751242         1.961675
 H         2.826686         2.681903         0.627015
 H         4.246175         2.357016        -0.459569
 H         2.347079         1.087757        -1.601444
 H         4.119797        -1.010412        -0.680760
