19
Iteration:  4876
 C         0.004503         0.356047         0.034159
 C         1.472825         0.038531         0.227129
 C         1.908879         0.099935         1.618610
 C         3.474141         0.048287         1.333744
 O         4.009702         1.337122         1.048940
 C         3.357980         1.836978        -0.252011
 C         2.601170         0.641456        -0.627384
 C         3.252549        -0.758758        -0.041690
 O         1.948822        -1.342663        -0.095674
 H        -0.204121         0.672677        -1.014371
 H        -0.619530        -0.654102         0.054339
 H        -0.496718         1.052044         0.729299
 H         1.823827         1.017586         2.162754
 H         1.628475        -0.829508         2.197883
 H         4.131666        -0.253145         2.097435
 H         2.752307         2.738240         0.033287
 H         4.128503         2.096510        -0.987869
 H         2.383013         0.433687        -1.695702
 H         3.976722        -1.272078        -0.726899
