19
Iteration:   376
 C        -0.052078         0.062577        -0.110050
 C         1.388483         0.070115         0.203718
 C         1.950056        -0.253626         1.568417
 C         3.494635        -0.284671         1.046730
 O         4.187027         0.920332         1.313709
 C         3.253910         1.914414         0.704882
 C         2.482993         1.105251        -0.274173
 C         3.244787        -0.199424        -0.484378
 O         2.060468        -1.021001        -0.716403
 H        -0.656666         0.957857         0.291862
 H        -0.252764         0.168650        -1.196780
 H        -0.529280        -0.902001         0.214967
 H         1.825185         0.513368         2.305526
 H         1.603639        -1.225341         1.979343
 H         4.049417        -1.154937         1.379008
 H         2.495668         2.134213         1.393366
 H         3.838755         2.790714         0.255648
 H         2.203776         1.621728        -1.242195
 H         4.024647        -0.205493        -1.200911
