19
Iteration:  1341
 C        -0.075775         0.039055        -0.099746
 C         1.372074         0.089636         0.144197
 C         1.960172         0.121314         1.737296
 C         3.390944        -0.069152         1.312643
 O         4.160791         1.049634         1.123166
 C         3.398366         1.931066         0.125016
 C         2.556364         0.857642        -0.594388
 C         3.293555        -0.512796        -0.223183
 O         1.933927        -1.151377        -0.331805
 H        -0.627961         0.531305         0.717097
 H        -0.370297         0.296684        -1.066424
 H        -0.066918        -1.122875         0.149848
 H         1.652365         1.106114         2.305984
 H         1.571609        -0.813265         2.220524
 H         4.032179        -0.669612         1.900031
 H         2.732779         2.590695         0.767782
 H         4.197127         2.344089        -0.457149
 H         2.266601         1.055592        -1.693972
 H         4.056152        -1.104946        -0.725723
