19
Iteration:  4133charge 0 multiplicity 1
 C        -0.056438         0.110566        -0.143210
 C         1.375485         0.118700         0.210963
 C         1.998003         0.038402         1.655203
 C         3.560533        -0.124547         1.254372
 O         4.181814         1.132933         1.190113
 C         3.299123         1.859726         0.154645
 C         2.471340         0.835962        -0.538145
 C         3.198552        -0.485579        -0.301287
 O         1.964716        -1.193051        -0.271202
 H        -0.707808         0.389587         0.715512
 H        -0.387676         0.657919        -0.967942
 H        -0.357051        -0.954912        -0.379298
 H         1.789136         1.037793         2.118461
 H         1.657176        -0.766053         2.232810
 H         4.117972        -0.782359         1.867655
 H         2.798306         2.632240         0.722918
 H         3.983885         2.423610        -0.486496
 H         2.348310         1.018092        -1.532312
 H         3.964086        -0.869129        -0.895601
