19
Iteration:  4131charge 0 multiplicity 1
 C        -0.053452         0.107407        -0.132182
 C         1.366458         0.096822         0.199320
 C         1.995401         0.064533         1.648129
 C         3.543868        -0.115848         1.231240
 O         4.180316         1.135064         1.196372
 C         3.314742         1.851340         0.174709
 C         2.470901         0.830669        -0.532208
 C         3.210676        -0.475494        -0.308233
 O         1.967240        -1.198687        -0.269541
 H        -0.767459         0.435922         0.700748
 H        -0.455258         0.684200        -0.959218
 H        -0.311364        -0.969246        -0.330529
 H         1.763134         1.022407         2.113778
 H         1.675539        -0.730215         2.228730
 H         4.129972        -0.828854         1.836743
 H         2.831127         2.645554         0.754473
 H         4.009014         2.399534        -0.492096
 H         2.302807         0.991088        -1.543708
 H         3.988731        -0.881829        -0.898755
