19
Iteration:  4710charge 0 multiplicity 1
 C         0.019301         0.343183        -0.064071
 C         1.435534         0.048254         0.272924
 C         1.936530         0.016730         1.692596
 C         3.489734         0.017642         1.305654
 O         4.054485         1.329774         1.058604
 C         3.266341         1.820731        -0.132855
 C         2.656259         0.614201        -0.593285
 C         3.233063        -0.660944        -0.135914
 O         1.936271        -1.279681        -0.142974
 H        -0.500955        -0.597377        -0.409842
 H        -0.518701         0.734856         0.830331
 H        -0.002477         1.154259        -0.897815
 H         1.666108         0.827581         2.427162
 H         1.831069        -0.997642         2.091624
 H         4.127768        -0.485017         1.973932
 H         2.639834         2.700379         0.140914
 H         3.850209         2.223870        -0.981568
 H         2.333576         0.519934        -1.644865
 H         3.986544        -1.215147        -0.707797
