19
Iteration:   938charge 0 multiplicity 1
 C        -0.039087         0.426027        -0.158395
 C         1.404340        -0.029888         0.180329
 C         2.090827        -0.218221         1.681178
 C         3.568982        -0.160537         1.211254
 O         3.965295         1.186759         1.204544
 C         3.169719         1.866428         0.252108
 C         2.602535         0.843438        -0.588802
 C         3.324893        -0.500551        -0.217466
 O         2.000826        -1.215255        -0.369717
 H        -0.710879        -0.192051        -0.727305
 H        -0.590356         0.644781         0.735072
 H         0.048256         1.501661        -0.689838
 H         1.739483         0.658892         2.369428
 H         1.733113        -1.145712         2.040965
 H         4.295480        -0.786459         1.895587
 H         2.251174         2.370912         0.734241
 H         3.687761         2.812417        -0.103896
 H         2.162931         0.936472        -1.617446
 H         4.168844        -1.008265        -0.712730
