19
Iteration:   595
 C        -0.034929         0.327685         0.104280
 C         1.447118         0.006706         0.173895
 C         1.983632        -0.347377         1.513730
 C         3.511289        -0.257704         1.158381
 O         3.871479         1.171831         1.422466
 C         3.292517         1.934126         0.401551
 C         2.578154         0.956623        -0.467168
 C         3.343581        -0.371816        -0.440421
 O         2.071881        -1.165340        -0.678108
 H        -0.391002         1.171699         0.777715
 H        -0.444221         0.438113        -0.941815
 H        -0.624926        -0.409179         0.543243
 H         1.700994         0.270106         2.411497
 H         1.450062        -1.411074         1.747629
 H         4.315269        -0.851235         1.628636
 H         2.761267         2.760241         0.863161
 H         4.132797         2.504099        -0.152329
 H         2.077712         1.222843        -1.456556
 H         4.179236        -0.715096        -1.062503
