19
Iteration:   244
 C        -0.028591         0.197549         0.017272
 C         1.453608         0.046234         0.140465
 C         1.987825        -0.497646         1.487217
 C         3.555137        -0.341934         1.062366
 O         4.048188         0.974492         1.424270
 C         3.157125         1.899596         0.758813
 C         2.530747         1.126811        -0.330110
 C         3.294838        -0.189749        -0.559589
 O         2.051335        -0.927342        -0.825390
 H        -0.465207        -0.736787         0.235291
 H        -0.321761         0.774344         0.909595
 H        -0.420424         0.635159        -0.987983
 H         1.717552        -0.000454         2.333121
 H         1.672205        -1.567370         1.568340
 H         4.211678        -1.158430         1.389914
 H         2.332306         2.225643         1.459106
 H         3.679214         2.910431         0.449281
 H         2.076871         1.761110        -1.124493
 H         4.229690        -0.420552        -1.139391
