19
Iteration:  2513
 C        -0.005465         0.044739        -0.167127
 C         1.378638         0.036106         0.262935
 C         1.937581         0.164412         1.663783
 C         3.433514        -0.097935         1.242748
 O         4.240273         1.160110         1.048433
 C         3.402161         1.917896         0.197470
 C         2.566177         0.807587        -0.537835
 C         3.128012        -0.493857        -0.213209
 O         1.929935        -1.222275        -0.249540
 H        -0.813742         0.766522         0.385969
 H        -0.052893         0.282338        -1.260842
 H        -0.423039        -0.938615         0.018490
 H         1.875000         0.813289         2.495873
 H         1.403576        -0.813073         2.169023
 H         4.007965        -0.812253         1.870327
 H         2.608664         2.583947         0.809633
 H         4.035531         2.602852        -0.501450
 H         2.344952         0.912740        -1.685748
 H         3.915723        -0.884925        -0.862053
