19
Iteration:  1360charge 0 multiplicity 1
 C        -0.118149         0.037619        -0.111862
 C         1.375829         0.049929         0.241673
 C         1.922210         0.169256         1.642887
 C         3.457264        -0.110727         1.245581
 O         4.236757         1.149638         1.111218
 C         3.387491         1.877557         0.219183
 C         2.572506         0.841759        -0.543201
 C         3.177169        -0.511682        -0.245705
 O         1.977912        -1.236461        -0.300154
 H        -0.846806         0.476237         0.593649
 H        -0.112579         0.706130        -1.071378
 H        -0.520776        -1.059021        -0.236897
 H         1.857784         1.140307         1.902001
 H         1.375339        -0.549921         2.283191
 H         3.947812        -0.875811         1.819348
 H         2.729231         2.543693         0.736332
 H         4.123749         2.488319        -0.433583
 H         2.391039         1.105176        -1.599676
 H         4.041220        -0.770150        -0.744492
