19
Iteration:  4532charge 0 multiplicity 1
 C         0.026045         0.458620         0.014240
 C         1.457328         0.014312         0.128983
 C         2.023168         0.105325         1.664825
 C         3.449915        -0.042407         1.256493
 O         4.000291         1.330339         1.077328
 C         3.153979         1.829945         0.064956
 C         2.614192         0.585577        -0.708527
 C         3.292684        -0.706739        -0.144423
 O         2.032236        -1.363005        -0.169294
 H        -0.288174         0.984424         1.005688
 H        -0.147035         1.179445        -0.847653
 H        -0.627120        -0.387161        -0.138900
 H         1.797561         0.971169         2.282788
 H         1.489577        -0.742651         2.115025
 H         4.044792        -0.595788         2.061593
 H         2.289505         2.453263         0.399718
 H         3.793891         2.362153        -0.645675
 H         2.540052         0.530421        -1.767962
 H         4.088662        -1.110184        -0.705677
