19
Iteration:  2031
 C        -0.092410         0.036831        -0.028861
 C         1.373935         0.091083         0.153119
 C         1.909327         0.088421         1.594394
 C         3.419030        -0.144434         1.276782
 O         4.161687         1.113887         1.251467
 C         3.446566         1.877439         0.073937
 C         2.519133         0.918604        -0.612070
 C         3.219410        -0.456225        -0.220095
 O         2.008580        -1.182864        -0.311091
 H        -0.521205         0.392827         0.853468
 H        -0.548461         0.497968        -0.958354
 H        -0.240367        -1.083328        -0.088223
 H         1.704418         0.902028         2.300216
 H         1.464369        -0.775547         1.962128
 H         4.060546        -0.680487         2.064957
 H         2.861220         2.685500         0.558565
 H         4.236692         2.217853        -0.558725
 H         2.318025         0.995285        -1.630753
 H         4.109246        -0.921651        -0.788937
