19
Iteration:  3371charge 0 multiplicity 1
 C        -0.017289         0.328814        -0.111967
 C         1.462016        -0.022244         0.243071
 C         1.997892        -0.040636         1.704025
 C         3.446990        -0.094615         1.289453
 O         4.012635         1.268931         1.104172
 C         3.297851         1.818764         0.029527
 C         2.613090         0.719156        -0.592817
 C         3.268335        -0.563223        -0.152118
 O         1.947459        -1.184942        -0.272942
 H        -0.802089        -0.449432         0.175387
 H        -0.279003         1.314957         0.306635
 H        -0.246929         0.292798        -1.192173
 H         1.828303         0.787322         2.376260
 H         1.766391        -1.050904         2.016777
 H         4.115060        -0.682502         1.943191
 H         2.651377         2.634555         0.416150
 H         4.086474         2.382143        -0.569807
 H         2.241956         0.885970        -1.677054
 H         4.155354        -1.146385        -0.397680
