19
Iteration:  1303charge 0 multiplicity 1
 C        -0.080996         0.290435        -0.013222
 C         1.479206        -0.046108         0.181223
 C         1.975685        -0.042273         1.676096
 C         3.482027        -0.040687         1.252043
 O         4.000842         1.224653         1.280851
 C         3.373625         1.922042         0.101889
 C         2.558408         0.784792        -0.629815
 C         3.257116        -0.546423        -0.324450
 O         1.985515        -1.299960        -0.333947
 H        -0.304674         1.379935         0.163146
 H        -0.602163        -0.006333        -1.031701
 H        -0.700414        -0.292940         0.619040
 H         1.733244         0.811990         2.219408
 H         1.670383        -0.873555         2.255896
 H         4.104762        -0.811063         1.838868
 H         2.783885         2.751379         0.402469
 H         4.263520         2.313311        -0.516426
 H         2.232311         1.064340        -1.594642
 H         4.202916        -0.934384        -0.823488
