19
Iteration:  3592
 C        -0.083070         0.250475        -0.195015
 C         1.439599         0.059282         0.199751
 C         2.000785        -0.057095         1.687281
 C         3.516991        -0.154146         1.186532
 O         4.107995         1.184922         1.197968
 C         3.255810         1.882071         0.203419
 C         2.551108         0.801537        -0.559043
 C         3.276953        -0.513559        -0.196083
 O         1.943174        -1.163782        -0.285338
 H        -0.203490         0.856403        -1.068197
 H        -0.328863        -0.761411        -0.489424
 H        -0.744234         0.500385         0.642587
 H         1.723821         0.780401         2.271809
 H         1.461751        -0.954598         2.123456
 H         4.434416        -0.703990         1.640250
 H         2.634095         2.599950         0.771492
 H         4.047153         2.411991        -0.419325
 H         2.224074         0.872688        -1.620223
 H         4.141735        -1.096012        -0.765741
