19
Iteration:   258
 C        -0.012446         0.284716         0.079841
 C         1.476836        -0.007476         0.095948
 C         2.081602        -0.597521         1.456710
 C         3.503063        -0.316229         1.034467
 O         3.971274         0.979766         1.430170
 C         3.123072         1.935033         0.731916
 C         2.488166         1.080505        -0.381364
 C         3.326190        -0.190176        -0.441523
 O         2.048320        -0.909069        -0.807622
 H        -0.571299        -0.640574        -0.305502
 H        -0.344707         0.629181         1.060356
 H        -0.167705         1.097471        -0.583559
 H         1.883397         0.021457         2.367484
 H         1.837070        -1.613300         1.588262
 H         4.265595        -0.994947         1.358736
 H         2.374961         2.364576         1.527233
 H         3.844028         2.653259         0.426373
 H         2.385457         1.501789        -1.532031
 H         4.047554        -0.349843        -1.185055
