19
Iteration:  3064
 C         0.014664         0.364103        -0.146394
 C         1.411368         0.013773         0.243154
 C         2.031346        -0.129310         1.764299
 C         3.485964        -0.050676         1.280861
 O         4.076444         1.223125         1.169395
 C         3.185816         1.932361         0.143447
 C         2.559976         0.755831        -0.645915
 C         3.301512        -0.517059        -0.238982
 O         1.947084        -1.308841        -0.337217
 H        -0.064267         1.323673        -0.677273
 H        -0.151121        -0.546107        -0.892425
 H        -0.637127         0.348037         0.741253
 H         1.674126         0.658725         2.542583
 H         1.665596        -1.124773         2.013590
 H         4.117903        -0.569271         1.935114
 H         2.599458         2.633833         0.752831
 H         3.975844         2.381989        -0.518429
 H         2.140191         0.907004        -1.665142
 H         4.121686        -1.008170        -0.745773
