19
Iteration:  4394charge 0 multiplicity 1
 C        -0.055748         0.224014        -0.046329
 C         1.462619         0.069626         0.224181
 C         1.999684        -0.043158         1.717804
 C         3.444675        -0.039313         1.314415
 O         4.118794         1.277646         1.038796
 C         3.286463         1.919590         0.074581
 C         2.610528         0.692153        -0.656167
 C         3.220745        -0.604700        -0.156869
 O         1.928731        -1.240670        -0.260118
 H        -0.198043         0.462793        -1.131533
 H        -0.665614        -0.639184         0.151727
 H        -0.433131         1.175082         0.469503
 H         1.776169         0.807870         2.451716
 H         1.536503        -0.973034         2.041715
 H         4.138861        -0.586714         2.031932
 H         2.615362         2.604627         0.610850
 H         3.967251         2.456614        -0.624681
 H         2.468796         0.624311        -1.757765
 H         4.113563        -1.077894        -0.755685
