19
Iteration:  2188
 C        -0.055432         0.050553        -0.137950
 C         1.347264         0.055349         0.255632
 C         1.880481         0.115400         1.678704
 C         3.484587        -0.109311         1.233540
 O         4.232743         1.126628         1.234764
 C         3.375364         1.899483         0.154254
 C         2.491223         0.857917        -0.547454
 C         3.252321        -0.514166        -0.260303
 O         1.952590        -1.176512        -0.368399
 H        -0.481063         1.008947        -0.645061
 H        -0.152323        -0.769882        -0.792513
 H        -0.712908        -0.101203         0.697398
 H         1.783512         1.043010         2.123023
 H         1.629031        -0.771343         2.355493
 H         4.072502        -0.764256         1.817893
 H         2.854526         2.627583         0.848723
 H         4.062087         2.302511        -0.534736
 H         2.395870         0.932750        -1.711131
 H         3.982705        -0.907545        -0.928871
