19
Iteration:  1985charge 0 multiplicity 1
 C        -0.142397         0.071994        -0.067365
 C         1.399062         0.066882         0.154513
 C         1.985174        -0.003733         1.670859
 C         3.467815        -0.120782         1.292043
 O         4.173979         1.187813         1.239460
 C         3.361451         1.922714         0.158315
 C         2.560818         0.835344        -0.605036
 C         3.232255        -0.482300        -0.259850
 O         1.955391        -1.183442        -0.360758
 H        -0.504105         1.030473         0.083818
 H        -0.268256        -0.162527        -1.104234
 H        -0.694701        -0.728810         0.549115
 H         1.714392         0.973486         2.170109
 H         1.506243        -0.727106         2.198493
 H         4.095257        -0.891851         1.870354
 H         2.746931         2.680671         0.685885
 H         4.167667         2.274951        -0.502460
 H         2.452076         1.040553        -1.711256
 H         4.053736        -0.974674        -0.812853
