19
Iteration:   301charge 0 multiplicity 1
 C         0.020182         0.304794         0.094355
 C         1.436692        -0.065140         0.145793
 C         2.099769        -0.554034         1.437817
 C         3.541708        -0.342722         1.052585
 O         3.879901         0.972045         1.507382
 C         3.203773         1.985940         0.646178
 C         2.502011         1.094391        -0.396881
 C         3.261974        -0.183072        -0.517121
 O         2.086228        -0.971320        -0.771379
 H        -0.395791         0.480577        -0.931450
 H        -0.684548        -0.328215         0.625941
 H        -0.065998         1.231718         0.604639
 H         1.770439        -0.117685         2.352205
 H         1.885895        -1.575615         1.489691
 H         4.336601        -1.002078         1.365691
 H         2.447302         2.624978         1.240256
 H         3.893866         2.617482         0.079226
 H         2.135834         1.511785        -1.446828
 H         4.130588        -0.274558        -1.108241
