19
Iteration:   696
 C        -0.092593         0.040489        -0.100046
 C         1.356373         0.054986         0.194871
 C         1.971040        -0.089198         1.601527
 C         3.470181        -0.201257         1.215115
 O         4.142680         1.018577         1.311780
 C         3.384670         1.964862         0.467735
 C         2.478724         1.018177        -0.536546
 C         3.260314        -0.357412        -0.369951
 O         2.008202        -1.139620        -0.577617
 H        -0.398320        -0.921067        -0.429314
 H        -0.634864         0.141384         0.820970
 H        -0.383587         0.784866        -0.871258
 H         1.719971         0.864020         2.256479
 H         1.611920        -1.019792         2.083766
 H         4.137932        -0.906754         1.654994
 H         2.747074         2.539012         1.106862
 H         4.212494         2.563009         0.018628
 H         2.179860         1.419393        -1.482711
 H         4.157917        -0.632689        -0.977003
