19
Iteration:   315charge 0 multiplicity 1
 C        -0.023187         0.217116         0.072010
 C         1.479170         0.047197         0.130184
 C         2.065805        -0.525561         1.456151
 C         3.537302        -0.332746         1.056398
 O         3.923667         0.983954         1.432205
 C         3.207370         1.977884         0.598854
 C         2.446757         1.124428        -0.308662
 C         3.351335        -0.276539        -0.443499
 O         2.044396        -0.947493        -0.803784
 H        -0.267434         0.809869        -0.858567
 H        -0.517586        -0.777060         0.080414
 H        -0.304424         0.835451         0.931059
 H         1.879033         0.120133         2.406573
 H         1.722373        -1.558585         1.608586
 H         4.205391        -1.122408         1.505634
 H         2.598980         2.588316         1.391758
 H         3.931086         2.671402         0.272809
 H         2.119510         1.691469        -1.299223
 H         4.075112        -0.557597        -1.236484
