19
Iteration:  3172charge 0 multiplicity 1
 C        -0.025679         0.158346        -0.143802
 C         1.450732         0.040954         0.286478
 C         1.954810         0.106864         1.679822
 C         3.463843        -0.179336         1.230204
 O         4.060578         1.185981         1.144538
 C         3.386331         1.938824         0.103914
 C         2.487744         0.822802        -0.544265
 C         3.285655        -0.588853        -0.265489
 O         1.981016        -1.250285        -0.214947
 H        -0.795084         0.306335         0.559738
 H        -0.295778         0.991977        -0.894262
 H        -0.234832        -0.703022        -0.790205
 H         1.504967         1.066395         2.034279
 H         1.531878        -0.639987         2.220336
 H         4.052953        -0.672012         1.947996
 H         2.883724         2.806615         0.622266
 H         4.043557         2.339965        -0.702219
 H         2.312848         1.104402        -1.530846
 H         3.998878        -1.108383        -0.888213
