19
Iteration:  4535
 C         0.017477         0.468110         0.015581
 C         1.474631        -0.000831         0.117736
 C         2.016156         0.082926         1.680357
 C         3.458168        -0.030178         1.272415
 O         4.004899         1.314668         1.065395
 C         3.159079         1.839264         0.046672
 C         2.632854         0.607048        -0.694730
 C         3.285589        -0.691665        -0.138706
 O         2.023725        -1.349755        -0.166600
 H        -0.349959         0.912385         0.960378
 H        -0.113746         1.106714        -0.786874
 H        -0.618685        -0.434412        -0.159320
 H         1.666082         1.020909         2.283858
 H         1.471764        -0.761595         2.125540
 H         4.037828        -0.555863         2.055565
 H         2.301443         2.423245         0.485864
 H         3.720200         2.352268        -0.724132
 H         2.551559         0.525154        -1.819955
 H         4.059686        -1.263269        -0.786745
