19
Iteration:  3234
 C         0.039998         0.356593         0.008331
 C         1.494765        -0.027692         0.115038
 C         1.984075         0.014890         1.659214
 C         3.428859        -0.075246         1.368798
 O         3.990119         1.270331         1.130099
 C         3.277331         1.848885         0.047314
 C         2.609880         0.766376        -0.742500
 C         3.269993        -0.575568        -0.155281
 O         1.948720        -1.331685        -0.239083
 H        -0.510769        -0.512694         0.251258
 H        -0.134074         1.205520         0.616657
 H        -0.088191         0.541659        -1.086205
 H         1.654798         0.963773         2.102603
 H         1.481392        -0.832142         2.197228
 H         3.966212        -0.680653         2.075673
 H         2.584899         2.558016         0.516579
 H         3.852242         2.436037        -0.608811
 H         2.455365         0.751391        -1.754711
 H         4.163234        -1.088365        -0.571566
