19
Iteration:  2150
 C        -0.116443         0.139148        -0.028180
 C         1.363293         0.074664         0.227809
 C         1.935643         0.019913         1.625455
 C         3.482828        -0.103806         1.196894
 O         4.055385         1.137348         1.252773
 C         3.401139         1.947615         0.138110
 C         2.584269         0.814225        -0.623265
 C         3.261900        -0.486585        -0.234333
 O         2.020828        -1.215590        -0.364629
 H        -0.474396         1.071007        -0.287487
 H        -0.394941        -0.618907        -0.805863
 H        -0.632758        -0.221769         0.903516
 H         1.853454         0.987378         2.269735
 H         1.469326        -0.750133         2.151302
 H         3.914255        -0.901034         1.900747
 H         2.830304         2.806918         0.452899
 H         4.347802         2.286393        -0.445534
 H         2.473429         0.829403        -1.652024
 H         4.149181        -1.033731        -0.721792
