19
Iteration:  4736
 C        -0.147738         0.163097         0.034151
 C         1.397621         0.035513         0.169318
 C         1.972082         0.269472         1.641189
 C         3.420042        -0.037919         1.304829
 O         4.082205         1.220247         1.068915
 C         3.391093         1.873050        -0.025499
 C         2.654900         0.695171        -0.681029
 C         3.218673        -0.612138        -0.152610
 O         1.998463        -1.317890        -0.158832
 H        -0.562934        -0.735924        -0.327651
 H        -0.560396         0.305004         1.060518
 H        -0.423354         0.951406        -0.583680
 H         1.931957         1.248602         2.082821
 H         1.560663        -0.559012         2.322041
 H         4.026530        -0.613211         2.067795
 H         2.926615         2.882942         0.175194
 H         4.160712         2.026929        -0.776575
 H         2.469951         0.591015        -1.737959
 H         4.006182        -1.108714        -0.720570
