19
Iteration:  3436
 C        -0.090332         0.198120        -0.031731
 C         1.413098         0.130286         0.102478
 C         1.989838         0.106657         1.640879
 C         3.392849        -0.121686         1.340366
 O         4.134413         1.194386         1.184783
 C         3.304428         1.910913         0.130902
 C         2.658575         0.761751        -0.595521
 C         3.241024        -0.625137        -0.207582
 O         2.011062        -1.249918        -0.358654
 H        -0.530756         0.236475         0.985727
 H        -0.486672         0.949549        -0.714237
 H        -0.510547        -0.722860        -0.364477
 H         1.707832         0.992624         2.306157
 H         1.486980        -0.750473         2.141966
 H         4.026276        -0.781153         1.891509
 H         2.530041         2.593422         0.518404
 H         3.935474         2.434731        -0.614762
 H         2.298981         0.893134        -1.670773
 H         4.016152        -1.222891        -0.650742
