19
Iteration:  4134
 C        -0.060169         0.110132        -0.146014
 C         1.381317         0.126905         0.217615
 C         2.000104         0.028758         1.657150
 C         3.565469        -0.127879         1.263794
 O         4.181909         1.132538         1.185956
 C         3.293393         1.864858         0.146357
 C         2.473814         0.838484        -0.538504
 C         3.191883        -0.490057        -0.294767
 O         1.963284        -1.190732        -0.272706
 H        -0.672936         0.366656         0.718264
 H        -0.354898         0.662450        -0.994199
 H        -0.374431        -0.936222        -0.399087
 H         1.807511         1.036881         2.126687
 H         1.633784        -0.805404         2.250102
 H         4.120614        -0.770789         1.889323
 H         2.771959         2.629523         0.711369
 H         3.973840         2.431230        -0.487974
 H         2.358657         1.040724        -1.572700
 H         3.972841        -0.874621        -0.912227
