19
Iteration:  1596
 C         0.042611         0.381573         0.060331
 C         1.446624         0.023583         0.179517
 C         1.960359        -0.109835         1.647501
 C         3.447129        -0.202294         1.283680
 O         3.822742         1.267037         1.234346
 C         3.331887         1.932255        -0.046137
 C         2.627672         0.763324        -0.626633
 C         3.368585        -0.523653        -0.213419
 O         2.002703        -1.291953        -0.339365
 H        -0.274947         0.907965         0.952799
 H        -0.163725         1.145258        -0.776943
 H        -0.747794        -0.510727         0.095745
 H         1.823654         0.785439         2.293414
 H         1.670655        -1.052422         2.060071
 H         4.003451        -0.760655         2.022484
 H         2.695156         2.787676         0.150744
 H         4.212286         2.173119        -0.523998
 H         2.389734         0.667592        -1.632012
 H         4.187068        -0.863302        -0.774992
