19
Iteration:  1725
 C        -0.026664         0.267085        -0.002147
 C         1.445636         0.042706         0.225825
 C         1.968728        -0.164865         1.607504
 C         3.504860        -0.058380         1.262242
 O         3.955322         1.232860         1.220511
 C         3.359991         1.866258         0.110419
 C         2.565442         0.792729        -0.632977
 C         3.301500        -0.570178        -0.204517
 O         1.973212        -1.146509        -0.408190
 H        -0.211306         1.251527        -0.220315
 H        -0.495584        -0.378032        -0.672592
 H        -0.628260         0.000332         0.933004
 H         1.650371         0.596688         2.467792
 H         1.608251        -1.077515         1.971803
 H         4.209884        -0.574009         1.913210
 H         2.697554         2.699016         0.531620
 H         4.327923         2.317713        -0.451907
 H         2.135081         0.808986        -1.608111
 H         4.120892        -1.063294        -0.656380
