19
Iteration:  4945charge 0 multiplicity 1
 C        -0.146825         0.061583        -0.054110
 C         1.302298         0.093015         0.210378
 C         1.979284         0.312333         1.639067
 C         3.485791         0.072992         1.318978
 O         4.242633         1.122309         0.953382
 C         3.379115         1.877406        -0.007238
 C         2.611353         0.673653        -0.660240
 C         3.182474        -0.596840        -0.096933
 O         1.968476        -1.297517        -0.102561
 H        -0.325223        -0.853377        -0.724164
 H        -0.742502        -0.077705         0.834341
 H        -0.542668         0.960535        -0.546079
 H         1.662283         1.332409         1.995009
 H         1.627828        -0.471320         2.336201
 H         3.921794        -0.570730         2.204468
 H         2.729372         2.523283         0.613028
 H         4.042486         2.507847        -0.582325
 H         2.470966         0.809520        -1.728391
 H         3.969739        -1.225930        -0.609095
