19
Iteration:  4204
 C        -0.005465         0.387812         0.129184
 C         1.443628        -0.018411         0.190833
 C         1.970905        -0.000623         1.582604
 C         3.446758        -0.038205         1.192337
 O         3.900738         1.201641         1.219182
 C         3.264115         1.859588         0.062265
 C         2.669817         0.732287        -0.629927
 C         3.287660        -0.573020        -0.228690
 O         2.076080        -1.330396        -0.344915
 H        -0.462277         0.124340         1.070430
 H        -0.313110         1.448970        -0.061488
 H        -0.659088        -0.163317        -0.498462
 H         1.904683         1.034012         1.946068
 H         1.502788        -0.771053         2.336162
 H         4.149829        -0.631178         1.833587
 H         2.585457         2.643940         0.410555
 H         4.050376         2.433596        -0.414852
 H         2.299144         0.787214        -1.721647
 H         4.091948        -0.984919        -0.868306
