19
Iteration:  1310
 C        -0.100064         0.234297        -0.027603
 C         1.379152         0.004460         0.170034
 C         1.953057        -0.029182         1.662330
 C         3.457773        -0.097284         1.209805
 O         4.069453         1.262815         1.296913
 C         3.423536         1.925455         0.081751
 C         2.570431         0.765250        -0.587330
 C         3.276831        -0.541245        -0.300997
 O         1.983044        -1.284944        -0.337378
 H        -0.449667         1.201407         0.350036
 H        -0.414584         0.044534        -1.000374
 H        -0.628810        -0.462082         0.656479
 H         1.759033         0.981149         2.306000
 H         1.595968        -0.923300         2.216993
 H         4.064017        -0.787894         1.792303
 H         2.748751         2.806431         0.408190
 H         4.192280         2.460607        -0.441931
 H         2.304962         0.961831        -1.677633
 H         4.167171        -1.008819        -0.851685
