19
Iteration:  3452charge 0 multiplicity 1
 C        -0.106069         0.150204        -0.055401
 C         1.444143         0.024428         0.171848
 C         1.907841         0.075583         1.547666
 C         3.518492        -0.061221         1.264533
 O         4.129486         1.160152         1.098816
 C         3.360752         1.895021         0.226746
 C         2.586302         0.847810        -0.614567
 C         3.285016        -0.606002        -0.096023
 O         1.878858        -1.210417        -0.337713
 H        -0.586470         0.501946         0.855745
 H        -0.280551         0.797429        -0.943170
 H        -0.355870        -0.912139        -0.360288
 H         1.735332         0.956175         2.148454
 H         1.557006        -0.738546         2.156143
 H         4.051362        -0.493156         2.157043
 H         2.679796         2.565861         0.784392
 H         4.048922         2.504354        -0.380140
 H         2.621069         0.871808        -1.695054
 H         4.143234        -1.096784        -0.636860
