19
Iteration:  4487
 C        -0.006980         0.201605        -0.080374
 C         1.407044         0.072932         0.247793
 C         1.968048         0.031582         1.686990
 C         3.451884        -0.023885         1.307523
 O         4.052839         1.270403         1.087737
 C         3.400464         1.852532        -0.068039
 C         2.559058         0.727109        -0.607378
 C         3.262885        -0.549282        -0.140329
 O         1.937727        -1.300975        -0.211839
 H        -0.139854         1.302681         0.240438
 H        -0.238951         0.154949        -1.216979
 H        -0.676674        -0.354874         0.554940
 H         1.665319         0.760863         2.375193
 H         1.712349        -0.953686         2.103256
 H         4.112756        -0.589779         1.979547
 H         2.700762         2.595893         0.323362
 H         4.063526         2.239757        -0.843763
 H         2.133676         0.782989        -1.572490
 H         4.015843        -1.136758        -0.504296
