19
Iteration:  4936charge 0 multiplicity 1
 C        -0.083280         0.006470        -0.067976
 C         1.369938         0.027517         0.189444
 C         1.883672         0.315563         1.682537
 C         3.412930         0.029865         1.272742
 O         4.299873         1.189365         0.945130
 C         3.435337         1.843737         0.033439
 C         2.565598         0.731021        -0.680823
 C         3.191258        -0.603716        -0.090933
 O         1.879935        -1.269888        -0.067933
 H        -0.182816        -0.788834        -0.784505
 H        -0.533437        -0.258992         0.806502
 H        -0.495517         0.930999        -0.514906
 H         1.904263         1.362977         2.105678
 H         1.528006        -0.303133         2.461367
 H         4.066217        -0.611674         1.961949
 H         2.882832         2.588678         0.598010
 H         3.952432         2.462386        -0.722905
 H         2.487558         0.905203        -1.759851
 H         3.916327        -1.143879        -0.640327
