19
Iteration:  1239
 C         0.051115         0.338060        -0.064963
 C         1.457633         0.038113         0.152290
 C         1.998572        -0.019630         1.581409
 C         3.479254        -0.099447         1.225160
 O         4.075559         1.250136         1.220738
 C         3.171023         1.885853         0.187819
 C         2.564012         0.731324        -0.571496
 C         3.277215        -0.586115        -0.219276
 O         1.959249        -1.284362        -0.309138
 H        -0.064554         1.433044        -0.038347
 H        -0.401498        -0.141033        -1.033856
 H        -0.520475         0.012220         0.795202
 H         1.742078         0.735333         2.223298
 H         1.649361        -1.004224         1.977721
 H         4.190130        -0.706240         1.856265
 H         2.533021         2.564593         0.710533
 H         3.715488         2.518387        -0.535618
 H         2.277986         0.771397        -1.590308
 H         4.044250        -1.032276        -0.834118
