19
Iteration:  4673charge 0 multiplicity 1
 C         0.042553         0.439829        -0.122398
 C         1.457539        -0.019916         0.272950
 C         2.018313         0.110539         1.663877
 C         3.518923        -0.068793         1.193509
 O         3.991350         1.293248         1.149322
 C         3.169385         1.831956        -0.069560
 C         2.565989         0.581948        -0.612026
 C         3.250548        -0.623337        -0.196042
 O         2.014291        -1.331911        -0.059998
 H        -0.763540        -0.361679        -0.225301
 H        -0.331012         1.135929         0.642088
 H         0.051754         0.966076        -1.080471
 H         1.849213         1.057414         2.143932
 H         1.584530        -0.655485         2.314768
 H         4.198070        -0.707264         1.920045
 H         2.393760         2.553429         0.191620
 H         4.011370         2.173197        -0.735501
 H         2.357918         0.613965        -1.683611
 H         3.985644        -1.125769        -0.863735
