19
Iteration:  4848charge 0 multiplicity 1
 C         0.004378         0.490271         0.044313
 C         1.486134        -0.026109         0.174111
 C         1.947398         0.122255         1.684246
 C         3.462359         0.018626         1.340485
 O         3.921683         1.324533         1.107104
 C         3.248864         1.760051        -0.286361
 C         2.690101         0.554531        -0.723209
 C         3.280786        -0.694354        -0.078583
 O         2.001939        -1.358989        -0.080988
 H        -0.178884         1.073467        -0.898059
 H        -0.770384        -0.172347         0.063970
 H        -0.201938         1.104984         0.899959
 H         1.923255         1.038653         2.341704
 H         1.591434        -0.758685         2.257828
 H         4.293354        -0.433395         2.128275
 H         2.477922         2.506658        -0.075335
 H         3.972238         2.374262        -0.863009
 H         2.318952         0.329605        -1.763055
 H         4.060538        -1.158990        -0.759372
