19
Iteration:  3429charge 0 multiplicity 1
 C        -0.107654         0.248338        -0.035095
 C         1.467089         0.054856         0.174262
 C         1.908476         0.103114         1.656679
 C         3.448993        -0.126576         1.314159
 O         4.097477         1.168385         1.223217
 C         3.299871         1.898826         0.095219
 C         2.659450         0.744417        -0.654406
 C         3.223748        -0.541494        -0.261026
 O         2.022831        -1.244214        -0.323985
 H        -0.442815         0.282534         1.003166
 H        -0.496318         1.044502        -0.614358
 H        -0.387589        -0.737029        -0.481245
 H         1.776866         0.929965         2.237236
 H         1.475223        -0.716044         2.223399
 H         4.032493        -0.742440         2.000596
 H         2.531018         2.587778         0.443260
 H         4.021504         2.405109        -0.578728
 H         2.437717         0.674476        -1.662166
 H         4.038427        -1.029302        -0.830347
