19
Iteration:  2927
 C         0.000446         0.358512        -0.088730
 C         1.443673        -0.004654         0.178059
 C         2.000014         0.024531         1.727362
 C         3.497508        -0.078305         1.243906
 O         3.976089         1.202317         1.168093
 C         3.194890         1.839404         0.119170
 C         2.617098         0.707835        -0.616433
 C         3.349694        -0.557472        -0.232019
 O         2.003527        -1.264690        -0.280550
 H        -0.233285         1.460211         0.265811
 H        -0.283013         0.414703        -1.121105
 H        -0.766408        -0.251513         0.426905
 H         1.885191         0.879980         2.324440
 H         1.591810        -0.912341         2.182100
 H         4.177756        -0.774194         1.715845
 H         2.299926         2.426851         0.578169
 H         3.817991         2.498093        -0.491656
 H         2.201744         0.907644        -1.645490
 H         4.104941        -1.071626        -0.803448
