19
Iteration:  4885charge 0 multiplicity 1
 C        -0.047676         0.246657        -0.065301
 C         1.385028         0.023493         0.231545
 C         1.972971         0.175248         1.689385
 C         3.498311        -0.005441         1.361291
 O         4.046965         1.329556         1.053046
 C         3.405588         1.860699        -0.235755
 C         2.597141         0.571919        -0.638121
 C         3.238884        -0.660789        -0.097613
 O         1.933695        -1.315308        -0.081469
 H        -0.224202         0.634391        -1.039466
 H        -0.613623        -0.704458         0.249367
 H        -0.300655         1.073258         0.677100
 H         1.739586         1.090826         2.240716
 H         1.572645        -0.647810         2.283943
 H         4.064448        -0.556602         2.001459
 H         2.766687         2.747229         0.024369
 H         4.196752         2.098644        -1.000563
 H         2.245744         0.759417        -1.656869
 H         3.965158        -1.203075        -0.658978
