19
Iteration:  3419charge 0 multiplicity 1
 C        -0.040747         0.257905        -0.012314
 C         1.418777         0.019298         0.217263
 C         1.894457         0.043920         1.643520
 C         3.494111        -0.102477         1.246688
 O         4.000692         1.174473         1.220491
 C         3.355045         1.837424         0.059545
 C         2.575111         0.758071        -0.682537
 C         3.334553        -0.507433        -0.242709
 O         1.986781        -1.248444        -0.261784
 H        -0.678169         0.332623         0.890489
 H        -0.199439         1.204713        -0.545217
 H        -0.483686        -0.583719        -0.653703
 H         1.792407         1.040446         2.026776
 H         1.432796        -0.748089         2.237300
 H         4.061019        -0.731660         1.955226
 H         2.712684         2.589118         0.539427
 H         4.189500         2.413326        -0.347891
 H         2.512514         0.892497        -1.718486
 H         4.190468        -0.848205        -0.868181
