19
Iteration:   717
 C        -0.134792         0.043719        -0.041280
 C         1.361518         0.079721         0.159973
 C         1.975358        -0.184036         1.558848
 C         3.464364        -0.241547         1.177441
 O         4.088121         1.105001         1.347694
 C         3.404597         1.967760         0.384657
 C         2.582898         0.930885        -0.447676
 C         3.250493        -0.361411        -0.344465
 O         2.027498        -1.030022        -0.548648
 H        -0.404057        -0.605716        -0.863066
 H        -0.701161        -0.311951         0.844650
 H        -0.636970         0.892671        -0.378200
 H         1.721742         0.690520         2.298255
 H         1.555160        -1.165445         1.931084
 H         4.095757        -0.902291         1.694864
 H         2.732209         2.748163         0.700580
 H         4.174377         2.277320        -0.358023
 H         2.466864         1.291664        -1.452910
 H         4.003840        -0.864830        -0.965366
