19
Iteration:   506charge 0 multiplicity 1
 C        -0.075654         0.166976        -0.142846
 C         1.412875         0.030330         0.262712
 C         1.988991        -0.272978         1.559987
 C         3.506609        -0.291796         1.110653
 O         4.167256         1.022449         1.301850
 C         3.200317         1.964088         0.569640
 C         2.516473         1.038543        -0.368497
 C         3.213106        -0.321699        -0.430854
 O         2.057682        -1.045495        -0.612692
 H        -0.212006        -0.315336        -1.152395
 H        -0.672515        -0.430763         0.556450
 H        -0.313570         1.243877        -0.199302
 H         2.006531         0.424469         2.415478
 H         1.619527        -1.373111         1.947908
 H         4.155418        -1.080037         1.537498
 H         2.516008         2.493389         1.270749
 H         3.656888         2.819692        -0.014051
 H         2.296312         1.482269        -1.318343
 H         3.908668        -0.592276        -1.197869
