19
Iteration:  2885charge 0 multiplicity 1
 C        -0.128342         0.307514        -0.022912
 C         1.380756        -0.012296         0.182700
 C         1.969494         0.008877         1.650844
 C         3.448977        -0.089834         1.271313
 O         4.032847         1.240295         1.175864
 C         3.330047         1.847572         0.088466
 C         2.625839         0.753518        -0.664503
 C         3.342575        -0.549457        -0.240929
 O         2.014663        -1.265009        -0.293958
 H        -0.473260         0.929970         0.915728
 H        -0.401984         0.871085        -0.880052
 H        -0.629268        -0.694468         0.082224
 H         1.565700         0.830430         2.209708
 H         1.723182        -0.954022         2.235723
 H         4.123543        -0.600047         1.985167
 H         2.681211         2.597777         0.422522
 H         4.025135         2.507847        -0.443188
 H         2.412606         0.853060        -1.728526
 H         4.288581        -1.076115        -0.487769
