19
Iteration:  1574charge 0 multiplicity 1
 C         0.006180         0.330095         0.026339
 C         1.428121         0.103994         0.179259
 C         1.933427        -0.173131         1.654431
 C         3.472154        -0.028910         1.261189
 O         3.936226         1.285366         1.222324
 C         3.339777         1.837968         0.049410
 C         2.652583         0.746896        -0.652398
 C         3.260726        -0.607643        -0.228209
 O         2.016110        -1.220900        -0.327899
 H        -0.437120         1.006148         0.737380
 H        -0.310028         0.766624        -0.986323
 H        -0.636909        -0.638658         0.304381
 H         1.658105         0.572285         2.447343
 H         1.666668        -1.199852         1.865439
 H         4.149908        -0.605030         1.890756
 H         2.689672         2.644871         0.358488
 H         4.112630         2.161430        -0.576581
 H         2.412286         1.002999        -1.617038
 H         4.047861        -1.186135        -0.609435
