19
Iteration:  1861charge 0 multiplicity 1
 C        -0.115570        -0.001914        -0.087753
 C         1.406862         0.042768         0.207912
 C         1.946970         0.094399         1.660707
 C         3.445564        -0.092139         1.261852
 O         4.121076         1.211114         1.259956
 C         3.498630         1.854232         0.143407
 C         2.538287         0.841742        -0.527992
 C         3.184407        -0.482301        -0.329970
 O         1.932999        -1.224200        -0.365485
 H        -0.513879         0.704680         0.734484
 H        -0.464042         0.389140        -1.086870
 H        -0.449944        -0.995225         0.026730
 H         2.024965         1.053526         2.081371
 H         1.524706        -0.641464         2.464998
 H         4.049248        -0.795710         1.776455
 H         2.982776         2.826050         0.490404
 H         4.313353         2.301003        -0.677499
 H         2.373432         1.086876        -1.609005
 H         4.135569        -0.739401        -0.841903
