19
Iteration:  2190charge 0 multiplicity 1
 C        -0.060279         0.056949        -0.132022
 C         1.361581         0.060983         0.249708
 C         1.893403         0.107192         1.677236
 C         3.470293        -0.121196         1.224977
 O         4.228881         1.131078         1.226426
 C         3.367912         1.898645         0.153501
 C         2.504311         0.857363        -0.542186
 C         3.247118        -0.513019        -0.237302
 O         1.951877        -1.180677        -0.373058
 H        -0.475888         1.035160        -0.679629
 H        -0.143056        -0.758670        -0.824838
 H        -0.833408        -0.117598         0.702402
 H         1.766356         1.115299         2.159759
 H         1.671654        -0.778400         2.355642
 H         4.098844        -0.773246         1.820213
 H         2.854534         2.571428         0.833740
 H         4.028930         2.347554        -0.575841
 H         2.393377         0.930408        -1.656602
 H         4.043544        -0.876901        -0.906689
