19
Iteration:  3434charge 0 multiplicity 1
 C        -0.095297         0.213532        -0.029767
 C         1.429421         0.112283         0.118410
 C         1.974697         0.103060         1.640350
 C         3.399396        -0.124216         1.336615
 O         4.129511         1.186300         1.198345
 C         3.302010         1.912951         0.121365
 C         2.668689         0.757176        -0.605784
 C         3.226473        -0.602281        -0.225952
 O         2.021907        -1.248876        -0.351167
 H        -0.487194         0.216377         1.006009
 H        -0.527354         1.017434        -0.745388
 H        -0.496885        -0.757239        -0.394013
 H         1.690801         1.045161         2.378284
 H         1.473488        -0.737066         2.177575
 H         4.058430        -0.800208         1.934482
 H         2.493684         2.601134         0.481487
 H         3.924499         2.400351        -0.627070
 H         2.289190         0.808303        -1.711112
 H         4.009500        -1.198108        -0.713023
