19
Iteration:  4209charge 0 multiplicity 1
 C        -0.004801         0.333734         0.154905
 C         1.455808         0.042086         0.186979
 C         1.954722        -0.005784         1.587036
 C         3.465282        -0.045723         1.275702
 O         3.937976         1.228394         1.190995
 C         3.273221         1.860250         0.035092
 C         2.679350         0.713453        -0.644893
 C         3.258256        -0.567898        -0.255727
 O         2.037297        -1.316589        -0.353574
 H        -0.534589        -0.068013         1.098600
 H        -0.204601         1.365378        -0.083191
 H        -0.584198        -0.142304        -0.760726
 H         1.729227         0.931547         2.154107
 H         1.509099        -0.794631         2.082099
 H         4.133928        -0.570752         1.916537
 H         2.500342         2.533523         0.497250
 H         4.166837         2.389680        -0.377663
 H         2.322913         0.905356        -1.607181
 H         4.082642        -1.041898        -0.785366
