19
Iteration:   771
 C        -0.032354         0.429884         0.026838
 C         1.430259         0.019113         0.157253
 C         2.067853        -0.238672         1.588068
 C         3.527084        -0.209798         1.191288
 O         3.931742         1.160656         1.349270
 C         3.172714         1.935332         0.335062
 C         2.536255         0.853385        -0.518126
 C         3.340941        -0.451507        -0.345095
 O         2.072886        -1.279737        -0.566795
 H        -0.168671         1.157354        -0.822230
 H        -0.713453        -0.394848        -0.383712
 H        -0.351407         0.920465         0.905134
 H         1.803275         0.567876         2.377757
 H         1.636346        -1.222679         1.866746
 H         4.200369        -0.675280         1.833628
 H         2.345091         2.589492         0.785493
 H         3.811420         2.678753        -0.211359
 H         2.423985         1.182457        -1.522029
 H         4.134440        -0.896238        -0.969004
