19
Iteration:  3392charge 0 multiplicity 1
 C         0.001662         0.359023        -0.114937
 C         1.385605         0.051430         0.244158
 C         1.971909        -0.069172         1.709586
 C         3.525484        -0.077234         1.274998
 O         4.018533         1.281620         1.237050
 C         3.332698         1.907400        -0.013119
 C         2.528075         0.744489        -0.576348
 C         3.237829        -0.609683        -0.251551
 O         1.991807        -1.333145        -0.278167
 H        -0.672381        -0.176285         0.578835
 H        -0.260643         1.424641        -0.253797
 H        -0.367404        -0.178696        -0.954619
 H         1.712685         0.839802         2.342834
 H         1.638807        -1.016136         2.153136
 H         4.084553        -0.634942         2.045026
 H         2.887724         2.836302         0.369665
 H         4.242388         2.216923        -0.568207
 H         2.486541         0.813517        -1.730871
 H         3.987347        -0.914952        -0.985392
