19
Iteration:  4817
 C         0.018296         0.321942        -0.126396
 C         1.463041        -0.006762         0.189065
 C         2.020561         0.214491         1.723056
 C         3.465494         0.033423         1.252028
 O         4.057106         1.276196         1.036077
 C         3.301120         1.772207        -0.125996
 C         2.555628         0.688148        -0.626570
 C         3.204398        -0.659998        -0.078825
 O         1.936338        -1.399333        -0.038334
 H        -0.149157         0.613311        -1.178986
 H        -0.635270        -0.474624         0.158791
 H        -0.294369         1.194113         0.546435
 H         1.847409         1.136619         2.346281
 H         1.666244        -0.609326         2.271166
 H         4.160457        -0.452792         2.008913
 H         2.560578         2.563241         0.193008
 H         4.055060         2.207175        -0.863213
 H         2.221601         0.586550        -1.694277
 H         4.035754        -1.098943        -0.616842
