19
Iteration:  4170charge 0 multiplicity 1
 C        -0.016142         0.365818        -0.078912
 C         1.444266         0.024386         0.236696
 C         2.000290        -0.123176         1.641931
 C         3.517259        -0.023671         1.241941
 O         4.049493         1.232202         1.169912
 C         3.252853         1.888354         0.109921
 C         2.532843         0.742956        -0.564971
 C         3.238981        -0.556611        -0.236018
 O         1.993230        -1.285862        -0.295415
 H        -0.441507         0.549581         0.878516
 H        -0.140840         1.314759        -0.676540
 H        -0.405329        -0.529503        -0.489564
 H         1.674527         0.677754         2.333252
 H         1.729465        -1.119361         2.223826
 H         4.205060        -0.632635         1.885015
 H         2.482784         2.557526         0.512416
 H         3.909014         2.356198        -0.614857
 H         2.288540         0.891125        -1.720326
 H         4.077744        -0.962023        -0.922746
