19
Iteration:  4795
 C        -0.124117         0.134271        -0.124529
 C         1.369546         0.068985         0.296359
 C         1.901431         0.204426         1.659524
 C         3.477481        -0.029701         1.326869
 O         4.213197         1.236559         0.938519
 C         3.392399         1.847008        -0.038968
 C         2.609803         0.665386        -0.673522
 C         3.236145        -0.618409        -0.080160
 O         1.926944        -1.233019        -0.062309
 H        -0.100908        -0.216854        -1.196405
 H        -0.673865        -0.595337         0.430485
 H        -0.726845         1.107214        -0.047077
 H         1.828723         1.183429         2.201094
 H         1.548399        -0.505353         2.355580
 H         4.206471        -0.577594         2.047711
 H         2.814877         2.712361         0.403173
 H         4.121276         2.267758        -0.825727
 H         2.049839         0.611167        -1.648831
 H         4.048043        -1.242109        -0.516760
