19
Iteration:  4479charge 0 multiplicity 1
 C        -0.064332         0.214432        -0.078062
 C         1.435972         0.045601         0.268821
 C         1.989963         0.003605         1.689028
 C         3.466232         0.017921         1.307740
 O         4.100098         1.232276         1.100714
 C         3.418313         1.863780        -0.099594
 C         2.553866         0.770850        -0.616418
 C         3.242281        -0.567278        -0.089081
 O         1.909710        -1.262934        -0.227077
 H        -0.598367         1.215091        -0.158260
 H        -0.233330        -0.295540        -1.003179
 H        -0.565162        -0.519195         0.520399
 H         1.504972         0.800660         2.380841
 H         1.610575        -0.994107         2.031207
 H         4.061379        -0.647206         2.029418
 H         2.828669         2.739478         0.308790
 H         4.087678         2.347993        -0.808254
 H         2.252372         0.745970        -1.654964
 H         4.095840        -1.022506        -0.602831
