19
Iteration:  4065charge 0 multiplicity 1
 C        -0.052985         0.243658        -0.021522
 C         1.474242         0.102550         0.226853
 C         1.988562        -0.134813         1.633837
 C         3.516560        -0.128104         1.277678
 O         4.000445         1.204275         1.220408
 C         3.329739         1.945405         0.131411
 C         2.610336         0.844941        -0.618012
 C         3.210964        -0.573461        -0.253207
 O         1.963272        -1.199944        -0.379648
 H        -0.472389         1.297376         0.012097
 H        -0.272565        -0.481953        -0.855978
 H        -0.545317        -0.313516         0.815603
 H         1.724033         0.610061         2.401225
 H         1.716243        -1.139148         1.843404
 H         4.225214        -0.751953         1.941618
 H         2.647500         2.724334         0.521645
 H         4.041645         2.589793        -0.436166
 H         2.381116         0.989387        -1.684327
 H         3.912216        -1.128403        -0.929778
