19
Iteration:  3559charge 0 multiplicity 1
 C         0.027490         0.396840         0.029514
 C         1.476928        -0.070868         0.170940
 C         1.922128        -0.010993         1.634102
 C         3.457871        -0.068040         1.236619
 O         3.967609         1.207335         1.237306
 C         3.274016         1.906339         0.230237
 C         2.597779         0.757964        -0.663180
 C         3.285614        -0.557851        -0.296285
 O         2.039780        -1.322285        -0.374890
 H        -0.160544         1.271859        -0.588519
 H        -0.576395        -0.347954        -0.413051
 H        -0.483793         0.570208         0.987660
 H         1.630233         0.913996         2.027251
 H         1.464136        -0.864730         2.205834
 H         4.166378        -0.853520         1.646525
 H         2.528537         2.628678         0.557361
 H         4.009617         2.492842        -0.385880
 H         2.214268         0.846891        -1.683169
 H         4.296153        -1.003022        -0.650270
