19
Iteration:  2647charge 0 multiplicity 1
 C        -0.165540         0.129829        -0.143211
 C         1.407253         0.028125         0.266687
 C         1.965279         0.108513         1.700400
 C         3.535353        -0.145990         1.289314
 O         4.099133         1.169562         1.096998
 C         3.349564         1.935343         0.177255
 C         2.526439         0.806637        -0.594644
 C         3.273370        -0.574148        -0.289165
 O         2.017731        -1.219667        -0.264167
 H        -0.524156         1.147708         0.117426
 H        -0.172653         0.230507        -1.211132
 H        -0.820046        -0.681104         0.343595
 H         1.658411         1.086991         2.054189
 H         1.469175        -0.636406         2.324038
 H         4.155618        -0.731994         1.959756
 H         2.886279         2.602856         0.782279
 H         3.979089         2.427594        -0.570578
 H         2.313763         0.866011        -1.613207
 H         4.194085        -0.910691        -0.783867
