19
Iteration:  3086charge 0 multiplicity 1
 C        -0.031884         0.313033        -0.100077
 C         1.396024         0.025376         0.196512
 C         2.028619        -0.087375         1.582774
 C         3.523168        -0.141847         1.233647
 O         3.996671         1.259104         1.193362
 C         3.263334         1.898968         0.138917
 C         2.585275         0.801953        -0.538506
 C         3.254908        -0.586409        -0.238274
 O         2.020147        -1.279583        -0.263865
 H         0.018420         1.405778        -0.193961
 H        -0.443720        -0.192236        -1.066455
 H        -0.618978         0.138230         0.807601
 H         1.788062         0.895863         2.139064
 H         1.547094        -0.888006         2.113279
 H         4.164300        -0.651848         1.898486
 H         2.483952         2.493948         0.633258
 H         3.972712         2.521196        -0.470219
 H         2.248245         0.966236        -1.586926
 H         4.045564        -0.988061        -0.837362
