19
Iteration:  2547charge 0 multiplicity 1
 C        -0.093240         0.233077        -0.054706
 C         1.410802         0.008654         0.176482
 C         1.991326         0.061840         1.657009
 C         3.519581        -0.200243         1.249219
 O         4.040020         1.248870         1.168921
 C         3.324780         1.935651         0.111519
 C         2.564019         0.792858        -0.596517
 C         3.224067        -0.523966        -0.207937
 O         2.011758        -1.302722        -0.281604
 H        -0.219588         1.320726         0.352878
 H        -0.282435         0.113780        -1.117878
 H        -0.743992        -0.505850         0.465519
 H         2.008627         0.954684         2.201555
 H         1.498895        -0.837985         2.195473
 H         4.083589        -0.927898         1.852055
 H         2.645338         2.771011         0.493595
 H         4.182100         2.464940        -0.413019
 H         2.400082         0.765697        -1.730999
 H         4.008831        -0.891276        -0.908771
