19
Iteration:  3693charge 0 multiplicity 1
 C        -0.073816         0.396923        -0.074095
 C         1.413614        -0.015797         0.208008
 C         1.996405        -0.201393         1.693768
 C         3.504645        -0.149703         1.279931
 O         4.028535         1.243435         1.204502
 C         3.246824         1.871564         0.177197
 C         2.532874         0.854218        -0.589016
 C         3.339827        -0.532849        -0.252941
 O         2.009851        -1.228542        -0.439233
 H        -0.361712        -0.275470        -0.838613
 H        -0.746175         0.289103         0.805847
 H        -0.096367         1.373461        -0.465573
 H         1.786586         0.465303         2.551164
 H         1.732849        -1.118872         2.151271
 H         4.217194        -0.706703         1.809738
 H         2.536250         2.489548         0.755961
 H         3.937796         2.524726        -0.395796
 H         2.319342         1.012243        -1.661474
 H         4.241419        -0.904946        -0.669144
