19
Iteration:  1018charge 0 multiplicity 1
 C        -0.141004         0.000262        -0.012240
 C         1.394328         0.047567         0.147853
 C         1.873559         0.029934         1.657814
 C         3.402879        -0.066436         1.254706
 O         4.168574         1.167961         1.265020
 C         3.483019         1.884640         0.236743
 C         2.681921         0.870958        -0.647541
 C         3.248716        -0.479698        -0.291493
 O         1.912838        -1.130990        -0.418114
 H        -0.483332         0.634095        -0.856023
 H        -0.274223        -1.081113        -0.268486
 H        -0.616752         0.250660         0.866044
 H         1.666136         0.900117         2.307692
 H         1.495609        -0.980883         2.227385
 H         3.838792        -0.787255         1.853909
 H         2.809090         2.674776         0.658759
 H         4.259284         2.257564        -0.467724
 H         2.340574         1.220901        -1.647261
 H         4.051100        -1.056699        -0.770803
