19
Iteration:  3748
 C        -0.069462         0.211669        -0.052648
 C         1.416363         0.087096         0.172680
 C         1.968045        -0.006588         1.648825
 C         3.501634        -0.205559         1.254791
 O         4.086468         1.190021         1.217200
 C         3.231687         1.919253         0.252949
 C         2.632699         0.818685        -0.560888
 C         3.246615        -0.576764        -0.352809
 O         1.991727        -1.178331        -0.369370
 H        -0.243114         0.029663        -1.086544
 H        -0.623170        -0.588319         0.473613
 H        -0.426434         1.142679         0.253872
 H         1.835977         0.908963         2.294060
 H         1.640249        -0.937823         2.009965
 H         4.189888        -0.775482         1.774182
 H         2.514874         2.502554         0.823954
 H         3.875578         2.688248        -0.199673
 H         2.569950         0.810445        -1.656312
 H         3.992246        -0.877571        -1.001515
