19
Iteration:  4123charge 0 multiplicity 1
 C        -0.125619         0.101569        -0.073011
 C         1.384041        -0.012963         0.190420
 C         1.980117         0.161834         1.604104
 C         3.446893        -0.101741         1.142296
 O         4.162312         1.146171         1.198914
 C         3.411621         1.869584         0.277217
 C         2.495289         0.832292        -0.550662
 C         3.266948        -0.456010        -0.303544
 O         1.980685        -1.236187        -0.281843
 H        -0.734411         0.530195         0.715726
 H        -0.356364         0.626475        -0.956457
 H        -0.315452        -1.004168        -0.165419
 H         1.784918         1.088522         2.232348
 H         1.626342        -0.652549         2.230719
 H         4.002630        -0.848975         1.605595
 H         2.838497         2.648345         0.766998
 H         4.081985         2.233903        -0.505626
 H         2.153974         1.022333        -1.535999
 H         4.029036        -0.875242        -0.894802
