19
Iteration:  3387charge 0 multiplicity 1
 C        -0.011891         0.336247        -0.100685
 C         1.369127         0.078520         0.264669
 C         1.970682        -0.088904         1.721058
 C         3.531842        -0.051766         1.301274
 O         4.025164         1.277404         1.227083
 C         3.356261         1.884503        -0.011087
 C         2.542452         0.719991        -0.615236
 C         3.277099        -0.581326        -0.236736
 O         1.960249        -1.320040        -0.293606
 H        -0.749293        -0.166731         0.535515
 H        -0.214926         1.418481        -0.182024
 H        -0.208662        -0.062103        -1.186817
 H         1.626024         0.769589         2.376664
 H         1.565775        -0.997078         2.214677
 H         4.198489        -0.621142         1.975843
 H         2.711424         2.715934         0.370262
 H         4.168252         2.263532        -0.635885
 H         2.408925         0.751399        -1.662251
 H         4.005963        -0.895709        -1.007516
