19
Iteration:  2091charge 0 multiplicity 1
 C         0.024484         0.492267        -0.090026
 C         1.447874        -0.005738         0.209640
 C         2.005083        -0.068156         1.657948
 C         3.525306        -0.151408         1.194808
 O         3.940809         1.227198         1.166248
 C         3.146077         1.803977         0.164257
 C         2.543942         0.721208        -0.610514
 C         3.313756        -0.505158        -0.288043
 O         2.085660        -1.326091        -0.236388
 H        -0.389785         1.339513         0.756255
 H        -0.038957         0.935352        -1.098926
 H        -0.769412        -0.308949         0.019562
 H         2.020360         0.801139         2.371145
 H         1.536878        -1.066778         2.183567
 H         3.977581        -0.551893         2.037369
 H         2.366204         2.559997         0.471686
 H         3.900464         2.422244        -0.397012
 H         2.502136         1.070853        -1.718015
 H         4.100963        -1.009879        -0.754676
