19
Iteration:  3133
 C        -0.119277         0.119937        -0.009602
 C         1.389389         0.029819         0.132158
 C         1.909739         0.032103         1.586517
 C         3.451967        -0.078327         1.338464
 O         4.120709         1.189113         1.142994
 C         3.393549         1.962259         0.131015
 C         2.597747         0.850079        -0.588404
 C         3.330685        -0.606104        -0.205455
 O         1.935613        -1.205878        -0.321970
 H        -0.674213         0.749581         0.779973
 H        -0.293402         0.457527        -1.027296
 H        -0.458663        -0.919451         0.053824
 H         1.657491         0.985753         2.103098
 H         1.441297        -0.829287         2.271615
 H         4.090989        -0.701250         2.031787
 H         2.810275         2.790095         0.574028
 H         4.228473         2.274952        -0.523768
 H         2.378972         0.957919        -1.750549
 H         4.179585        -1.149283        -0.661298
