19
Iteration:  4167
 C        -0.017833         0.367123        -0.092429
 C         1.434611         0.032928         0.245299
 C         2.001062        -0.138000         1.672433
 C         3.512704        -0.020364         1.223061
 O         4.043418         1.223124         1.148354
 C         3.268157         1.908032         0.118819
 C         2.537337         0.733807        -0.560194
 C         3.244457        -0.560089        -0.240499
 O         1.980725        -1.264993        -0.293842
 H        -0.447297         0.457195         0.900962
 H        -0.144101         1.213666        -0.754148
 H        -0.378949        -0.603028        -0.522195
 H         1.613589         0.686549         2.328013
 H         1.840173        -1.082055         2.233888
 H         4.167738        -0.608302         1.822870
 H         2.496519         2.536147         0.572233
 H         3.946858         2.399571        -0.592009
 H         2.371464         0.852552        -1.635974
 H         4.087500        -1.000180        -0.816907
