19
Iteration:  2903
 C         0.056942         0.327066         0.035542
 C         1.458841         0.059538         0.117841
 C         1.941072        -0.059094         1.584221
 C         3.451844        -0.062026         1.333366
 O         4.042538         1.285387         1.111961
 C         3.218250         1.939309         0.125727
 C         2.632737         0.735845        -0.591685
 C         3.268420        -0.649918        -0.133325
 O         1.993048        -1.332454        -0.338468
 H        -0.266115         1.162607         0.751442
 H        -0.203735         0.817804        -0.921840
 H        -0.614392        -0.497800         0.187192
 H         1.757989         0.805061         2.223508
 H         1.492542        -0.981771         1.922587
 H         4.079520        -0.619657         1.973982
 H         2.417199         2.642328         0.634960
 H         3.876848         2.444114        -0.596907
 H         2.407658         0.687209        -1.750041
 H         3.856987        -1.135384        -0.855648
