19
Iteration:  4505
 C        -0.004363         0.439961        -0.015051
 C         1.455268        -0.068385         0.206495
 C         1.989926         0.064144         1.686699
 C         3.490082        -0.058577         1.257470
 O         3.964214         1.285914         1.140015
 C         3.252145         1.853586        -0.014015
 C         2.567590         0.681978        -0.651709
 C         3.283397        -0.644587        -0.210685
 O         2.035870        -1.354404        -0.149973
 H        -0.280941         1.294853         0.525324
 H        -0.208161         0.632132        -1.100654
 H        -0.667160        -0.466040         0.162070
 H         1.805108         1.109325         2.067680
 H         1.420861        -0.608927         2.342520
 H         4.090060        -0.600503         1.926188
 H         2.633202         2.738477         0.258869
 H         3.994311         2.238566        -0.779052
 H         2.417463         0.673152        -1.793196
 H         4.092548        -1.077181        -0.945918
