19
Iteration:  1745charge 0 multiplicity 1
 C         0.007862         0.435994        -0.002497
 C         1.403099         0.018021         0.202515
 C         2.052493        -0.199991         1.675367
 C         3.475132        -0.199618         1.299688
 O         3.906138         1.347395         1.255552
 C         3.262484         1.936407         0.063043
 C         2.653049         0.749765        -0.569388
 C         3.284231        -0.570700        -0.277240
 O         1.994216        -1.299551        -0.415086
 H        -0.096659         1.460616        -0.198735
 H        -0.454644        -0.106137        -0.732729
 H        -0.638871         0.145100         0.926771
 H         1.678645         0.532832         2.523625
 H         1.790929        -1.140821         2.050969
 H         4.190907        -0.734965         1.885493
 H         2.582020         2.787153         0.270839
 H         3.981638         2.330182        -0.681839
 H         2.511549         0.881332        -1.722194
 H         4.091922        -0.897373        -0.860371
