19
Iteration:  2522charge 0 multiplicity 1
 C        -0.043487         0.067898        -0.167468
 C         1.386371         0.127219         0.271575
 C         1.970381         0.094800         1.685751
 C         3.434091        -0.097997         1.246043
 O         4.202718         1.192566         1.061549
 C         3.345797         1.830818         0.178240
 C         2.533947         0.794055        -0.518097
 C         3.209037        -0.545412        -0.225381
 O         1.941329        -1.175584        -0.274953
 H        -0.523189         0.926520         0.384714
 H        -0.052052         0.163246        -1.298288
 H        -0.447361        -0.901313         0.015255
 H         1.691760         1.062833         2.195180
 H         1.897112        -0.849289         2.276570
 H         3.852696        -0.837186         1.937053
 H         2.713508         2.523560         0.642419
 H         4.021936         2.473809        -0.432004
 H         2.193274         0.944220        -1.571165
 H         4.022706        -0.968124        -0.776258
