19
Iteration:  1480
 C        -0.078675         0.193790        -0.067594
 C         1.436726         0.083333         0.204691
 C         1.986170        -0.014700         1.648564
 C         3.474047        -0.079134         1.291869
 O         4.085594         1.162243         1.194017
 C         3.348308         1.926480         0.185639
 C         2.546317         0.751577        -0.621390
 C         3.289839        -0.500942        -0.227909
 O         1.930551        -1.230069        -0.368970
 H        -0.523226         1.107354        -0.470830
 H        -0.271984        -0.554903        -0.839452
 H        -0.618117         0.015892         0.777557
 H         1.884403         0.889168         2.141130
 H         1.613210        -0.910994         2.204765
 H         4.167590        -0.644777         1.888735
 H         2.588956         2.550744         0.628675
 H         4.169518         2.473358        -0.365653
 H         2.283430         0.794418        -1.738743
 H         4.121701        -0.896609        -0.786320
