19
Iteration:  1977
 C        -0.088499         0.167026        -0.079972
 C         1.423471         0.070284         0.127928
 C         1.955302        -0.017400         1.686752
 C         3.474685        -0.112912         1.225813
 O         4.119463         1.185921         1.169238
 C         3.340740         1.894086         0.200962
 C         2.561104         0.823274        -0.533328
 C         3.274123        -0.502582        -0.253505
 O         1.957730        -1.192917        -0.318476
 H        -0.585961         1.119608        -0.004308
 H        -0.280268        -0.326330        -1.135153
 H        -0.539978        -0.569133         0.697934
 H         1.541758         0.835851         2.260177
 H         1.478000        -0.954234         2.026545
 H         4.269847        -0.704812         1.792228
 H         2.674622         2.656522         0.689970
 H         3.996106         2.368753        -0.476797
 H         2.464363         0.904841        -1.566974
 H         4.164430        -1.012703        -0.784604
