19
Iteration:  3653
 C        -0.115070         0.115727         0.036286
 C         1.415564         0.049837         0.156646
 C         1.981486         0.055868         1.652289
 C         3.412039        -0.214431         1.244963
 O         4.027737         1.169199         1.275071
 C         3.397697         1.894861         0.250187
 C         2.600716         0.850547        -0.666313
 C         3.293751        -0.460870        -0.327727
 O         2.027359        -1.210438        -0.407656
 H        -0.354996        -0.170102        -1.070843
 H        -0.721113        -0.532649         0.737102
 H        -0.467047         1.200448         0.051884
 H         1.844951         1.097120         2.064241
 H         1.486078        -0.787035         2.120974
 H         3.989870        -0.925975         1.799902
 H         2.713089         2.701137         0.625843
 H         4.116415         2.486302        -0.318497
 H         2.380455         1.205168        -1.643580
 H         4.006700        -1.052169        -0.794883
