19
Iteration:  1555charge 0 multiplicity 1
 C        -0.070898         0.251021        -0.065440
 C         1.434388        -0.013517         0.189273
 C         2.029320        -0.016012         1.626337
 C         3.480320        -0.158008         1.290190
 O         4.035310         1.251649         1.232420
 C         3.384518         1.960878         0.100732
 C         2.555742         0.749403        -0.563667
 C         3.278088        -0.540991        -0.229665
 O         1.919686        -1.259291        -0.344724
 H        -0.451273         1.213039         0.342428
 H        -0.302075         0.252586        -1.190266
 H        -0.664361        -0.524581         0.356828
 H         1.827337         0.856713         2.227538
 H         1.505818        -0.918014         2.146493
 H         4.184108        -0.686003         1.924445
 H         2.737758         2.788047         0.555908
 H         4.085273         2.481423        -0.577998
 H         2.347225         0.832319        -1.674279
 H         4.058794        -0.906339        -0.877917
