19
Iteration:  4718
 C        -0.010219         0.286786        -0.004980
 C         1.398027         0.062457         0.228650
 C         1.938988         0.042509         1.640316
 C         3.489109         0.028742         1.349727
 O         4.065101         1.312516         1.075381
 C         3.369986         1.809510        -0.161492
 C         2.557191         0.646978        -0.653063
 C         3.295994        -0.639194        -0.107419
 O         1.902660        -1.281596        -0.153873
 H        -0.472818        -0.711289        -0.403638
 H        -0.502010         0.557087         0.893000
 H        -0.131373         1.075786        -0.808137
 H         1.620674         0.928516         2.237959
 H         1.664894        -0.829357         2.205612
 H         4.293215        -0.617089         1.942610
 H         2.684672         2.421243         0.410947
 H         4.052015         2.384586        -0.883347
 H         2.319228         0.728454        -1.753106
 H         4.221903        -1.220596        -0.477888
