19
Iteration:  2486charge 0 multiplicity 1
 C        -0.154092         0.112533        -0.138820
 C         1.371600         0.038125         0.192685
 C         2.000346         0.137839         1.576212
 C         3.455255        -0.126855         1.226440
 O         4.151089         1.173145         1.128867
 C         3.371931         1.844568         0.195523
 C         2.531585         0.816895        -0.547077
 C         3.245166        -0.551251        -0.212631
 O         2.035067        -1.178790        -0.230669
 H        -0.640709         0.750766         0.484177
 H        -0.472407         0.432488        -1.127765
 H        -0.607533        -0.855196         0.171730
 H         1.906127         1.069304         2.236628
 H         1.673926        -0.555327         2.269339
 H         3.943020        -0.819476         1.916506
 H         2.750292         2.535458         0.587475
 H         4.040723         2.283021        -0.479855
 H         2.241333         1.052655        -1.512534
 H         4.038173        -1.001865        -0.818730
