19
Iteration:  4324
 C        -0.027082         0.228473         0.118092
 C         1.414872         0.047884         0.112149
 C         1.941584         0.015269         1.568676
 C         3.478431        -0.092285         1.339926
 O         4.051908         1.252318         1.112058
 C         3.360824         1.897641         0.054875
 C         2.570476         0.733719        -0.635974
 C         3.292331        -0.560598        -0.145986
 O         1.951766        -1.250448        -0.301302
 H        -0.454629        -0.550892        -0.478396
 H        -0.606130         0.371032         1.017245
 H        -0.216212         1.012068        -0.532950
 H         1.738390         0.839152         2.287203
 H         1.550994        -1.006761         1.983267
 H         3.994358        -0.603384         2.134012
 H         2.618100         2.665214         0.362559
 H         4.055158         2.317401        -0.657310
 H         2.583610         0.787492        -1.713859
 H         4.007768        -1.037943        -0.709905
