19
Iteration:  1906charge 0 multiplicity 1
 C         0.030114         0.400748        -0.012269
 C         1.450991        -0.010319         0.161578
 C         1.937359        -0.130330         1.722495
 C         3.482722        -0.120698         1.231999
 O         3.976769         1.236642         1.192949
 C         3.216559         1.896452         0.115604
 C         2.609940         0.766720        -0.664159
 C         3.300068        -0.510684        -0.229631
 O         2.019897        -1.299753        -0.326369
 H        -0.072841         1.511554         0.251945
 H        -0.337919         0.260448        -0.994499
 H        -0.471489        -0.256948         0.721591
 H         1.645985         0.654296         2.378423
 H         1.596636        -1.151676         2.030379
 H         4.222690        -0.710372         1.698796
 H         2.517161         2.646410         0.624853
 H         3.979942         2.688302        -0.360175
 H         2.288651         0.941164        -1.776952
 H         4.057701        -1.017921        -0.742151
