19
Iteration:  4166
 C        -0.016494         0.365041        -0.096842
 C         1.429547         0.035348         0.247155
 C         2.001302        -0.141633         1.687107
 C         3.509008        -0.024724         1.217033
 O         4.041296         1.222250         1.138800
 C         3.273616         1.913992         0.121722
 C         2.540451         0.731984        -0.560645
 C         3.249429        -0.561492        -0.243428
 O         1.975611        -1.256853        -0.293439
 H        -0.473520         0.429182         0.920949
 H        -0.145978         1.168753        -0.785855
 H        -0.378107        -0.624112        -0.541125
 H         1.601507         0.685552         2.322376
 H         1.882071        -1.051725         2.214306
 H         4.160665        -0.608339         1.805620
 H         2.507009         2.543045         0.600624
 H         3.963874         2.426977        -0.577930
 H         2.399150         0.836011        -1.582813
 H         4.075836        -1.009916        -0.761027
