19
Iteration:  3574charge 0 multiplicity 1
 C        -0.007018         0.315530        -0.081816
 C         1.426230         0.051906         0.193407
 C         2.041255         0.011123         1.610096
 C         3.474115        -0.175141         1.276598
 O         3.994730         1.216867         1.254940
 C         3.243877         1.895413         0.157483
 C         2.563782         0.782017        -0.549157
 C         3.251242        -0.559104        -0.327217
 O         2.020012        -1.332201        -0.351037
 H         0.006467         1.192437        -0.743637
 H        -0.475160        -0.640387        -0.573574
 H        -0.463263         0.707869         0.847366
 H         1.970105         0.939962         2.251412
 H         1.736874        -0.759735         2.246568
 H         3.967079        -0.635559         2.136991
 H         2.505999         2.518314         0.709785
 H         3.960374         2.527061        -0.367328
 H         2.453424         1.156386        -1.608201
 H         3.886066        -0.967881        -1.108807
