19
Iteration:  2342
 C        -0.031316         0.038876        -0.070619
 C         1.394163         0.070156         0.137603
 C         1.918591         0.139428         1.633258
 C         3.369541        -0.139861         1.245768
 O         4.275941         1.172497         1.132120
 C         3.369067         1.884894         0.200125
 C         2.507939         0.871329        -0.569436
 C         3.203278        -0.550877        -0.201220
 O         1.972054        -1.217603        -0.314173
 H        -0.479207         0.832035         0.569684
 H        -0.292442         0.239330        -1.054717
 H        -0.372182        -0.972499         0.247075
 H         1.708852         1.114118         2.138636
 H         1.354351        -0.553992         2.317032
 H         3.882598        -0.781698         2.012002
 H         2.799768         2.693977         0.853747
 H         4.019527         2.336522        -0.543078
 H         2.334833         1.150376        -1.701512
 H         4.013985        -1.041556        -0.828826
