19
Iteration:  1465charge 0 multiplicity 1
 C         0.001646         0.287234         0.006161
 C         1.448848         0.005238         0.177354
 C         1.958494        -0.029946         1.628061
 C         3.456872        -0.175644         1.241887
 O         3.959493         1.225246         1.224441
 C         3.314249         1.868700         0.075911
 C         2.568605         0.848875        -0.591160
 C         3.238093        -0.511749        -0.240439
 O         2.056846        -1.263595        -0.329239
 H        -0.012008         1.337907        -0.240540
 H        -0.420913        -0.346801        -0.813203
 H        -0.492499         0.059843         0.943037
 H         1.676659         0.821385         2.355467
 H         1.482371        -0.877980         2.125803
 H         4.082454        -0.879196         1.828968
 H         2.761650         2.766321         0.508282
 H         4.028220         2.212452        -0.630687
 H         2.409091         1.031062        -1.599525
 H         4.087119        -0.962562        -0.767957
