19
Iteration:  4091
 C        -0.131887         0.121977         0.055672
 C         1.413279         0.010369         0.122452
 C         1.899388         0.049578         1.612254
 C         3.441703        -0.125660         1.276704
 O         4.122861         1.142339         1.200537
 C         3.391138         1.879469         0.185736
 C         2.601211         0.843363        -0.601852
 C         3.273424        -0.468700        -0.222920
 O         1.996047        -1.164026        -0.438046
 H        -0.470126         0.941013         0.648285
 H        -0.563949        -0.081815        -0.864328
 H        -0.364332        -0.775441         0.677383
 H         1.743495         1.071523         2.102301
 H         1.450712        -0.789339         2.213667
 H         4.029826        -0.794840         1.820255
 H         2.770030         2.671599         0.620216
 H         4.097069         2.385914        -0.477809
 H         2.400662         0.960729        -1.676937
 H         4.054995        -0.902162        -0.799146
