19
Iteration:  4781
 C        -0.139971        -0.005848        -0.099812
 C         1.373797         0.124578         0.192317
 C         1.966461         0.313543         1.695576
 C         3.449062         0.032493         1.265674
 O         4.224942         1.150294         0.985292
 C         3.465937         1.844438        -0.059883
 C         2.553992         0.749896        -0.573155
 C         3.188552        -0.627170        -0.092738
 O         1.907108        -1.271214        -0.093589
 H        -0.357433        -0.640200        -0.990450
 H        -0.616921        -0.428731         0.759866
 H        -0.543817         0.944514        -0.237218
 H         1.756655         1.305407         2.080391
 H         1.513133        -0.515513         2.312766
 H         3.997672        -0.616746         2.112566
 H         2.807465         2.633113         0.415963
 H         4.089308         2.407130        -0.767186
 H         2.616118         0.927244        -1.674353
 H         4.040140        -1.202096        -0.607062
