19
Iteration:  3306
 C        -0.093973         0.142353        -0.086738
 C         1.353532         0.091404         0.214824
 C         1.910682         0.157745         1.670656
 C         3.444852        -0.136615         1.322766
 O         4.162553         1.204077         1.078577
 C         3.431763         1.874379         0.082497
 C         2.572378         0.779317        -0.585247
 C         3.245272        -0.548770        -0.129970
 O         1.961658        -1.267626        -0.284702
 H        -0.117528        -1.007430        -0.333338
 H        -0.708943         0.270715         0.839546
 H        -0.308919         0.671030        -1.023794
 H         1.796723         1.127144         2.116821
 H         1.335273        -0.664312         2.146690
 H         4.057051        -0.782113         2.002911
 H         2.706521         2.684811         0.337863
 H         4.114771         2.402280        -0.694556
 H         2.371919         1.082955        -1.709263
 H         4.100361        -1.022259        -0.640968
