19
Iteration:  4542charge 0 multiplicity 1
 C         0.005891         0.416579         0.006443
 C         1.498298        -0.010440         0.143737
 C         1.947564         0.042100         1.674194
 C         3.499718        -0.005242         1.351118
 O         4.021816         1.255787         1.034135
 C         3.177429         1.858717        -0.042066
 C         2.658385         0.649635        -0.658665
 C         3.296780        -0.645046        -0.149913
 O         1.970761        -1.324060        -0.161476
 H        -0.502608         0.838832         0.967898
 H        -0.112802         1.167309        -0.888409
 H        -0.568026        -0.455928        -0.251754
 H         1.582923         0.941691         2.071559
 H         1.626546        -0.873862         2.203727
 H         4.287392        -0.481008         2.043242
 H         2.449452         2.409815         0.567334
 H         3.669892         2.607022        -0.709403
 H         2.498785         0.700334        -1.694532
 H         3.888844        -1.378780        -0.564775
