19
Iteration:  3037
 C        -0.065102         0.266086        -0.096561
 C         1.386178         0.033382         0.176500
 C         1.974630         0.022431         1.681100
 C         3.473850        -0.152958         1.172329
 O         4.038732         1.235112         1.174361
 C         3.256473         1.937317         0.190981
 C         2.596775         0.775267        -0.527481
 C         3.299480        -0.549888        -0.229978
 O         2.038827        -1.279106        -0.321890
 H        -0.188041         1.192394        -0.712121
 H        -0.340665        -0.639696        -0.583407
 H        -0.614114         0.252970         0.863958
 H         1.775399         0.819016         2.331798
 H         1.447329        -0.860207         2.150598
 H         4.173056        -0.763105         1.827851
 H         2.683168         2.731198         0.720506
 H         3.978453         2.225593        -0.538321
 H         2.406033         0.834436        -1.619332
 H         4.078637        -1.004444        -0.877149
