19
Iteration:  3060charge 0 multiplicity 1
 C         0.005666         0.330989        -0.163454
 C         1.398989         0.029526         0.250600
 C         2.052607        -0.156287         1.718002
 C         3.501911        -0.054984         1.319947
 O         4.066622         1.204676         1.156259
 C         3.201920         1.910698         0.102037
 C         2.547652         0.794001        -0.637790
 C         3.302453        -0.512753        -0.220497
 O         1.947808        -1.262944        -0.326831
 H         0.128444         1.305670        -0.641007
 H        -0.293043        -0.522071        -0.814582
 H        -0.672480         0.351336         0.742928
 H         1.692502         0.590548         2.380593
 H         1.592881        -1.035010         2.192954
 H         4.159093        -0.615939         2.079965
 H         2.488496         2.476952         0.735098
 H         3.950356         2.419550        -0.472087
 H         2.079758         0.913092        -1.563838
 H         4.215780        -0.983245        -0.733181
