19
Iteration:  3331charge 0 multiplicity 1
 C        -0.103584         0.229731        -0.045516
 C         1.371186        -0.043648         0.145734
 C         1.966096         0.199628         1.596455
 C         3.405064        -0.053868         1.224515
 O         4.123238         1.185575         1.190694
 C         3.330428         1.813413         0.158642
 C         2.591333         0.742147        -0.672126
 C         3.286002        -0.570002        -0.224500
 O         2.024454        -1.252608        -0.198635
 H        -0.565955        -0.786994        -0.121391
 H        -0.458409         0.622827         0.857172
 H        -0.241675         0.827915        -0.976416
 H         1.794262         1.198238         1.940098
 H         1.723245        -0.537013         2.424656
 H         3.876070        -0.735670         1.886776
 H         2.555134         2.498132         0.513266
 H         3.917111         2.418031        -0.541314
 H         2.543386         0.977598        -1.690301
 H         4.045574        -1.159539        -0.755087
