19
Iteration:  1365
 C        -0.153490         0.085200        -0.116783
 C         1.342070         0.020650         0.210316
 C         1.970621         0.139049         1.583335
 C         3.496532        -0.093419         1.253746
 O         4.210480         1.127278         1.116981
 C         3.369021         1.886961         0.214573
 C         2.549805         0.848278        -0.506455
 C         3.229983        -0.512170        -0.236079
 O         1.970088        -1.246534        -0.263031
 H        -0.863893         0.529050         0.594276
 H        -0.094785         0.647562        -0.993059
 H        -0.414548        -0.971824        -0.307639
 H         1.777708         1.322924         1.800155
 H         1.357758        -0.494163         2.233247
 H         4.130415        -0.806700         1.829722
 H         2.663276         2.593180         0.785366
 H         4.109777         2.322101        -0.396067
 H         2.375255         1.203323        -1.551884
 H         4.126228        -0.873968        -0.879397
