19
Iteration:   152charge 0 multiplicity 1
 C        -0.070462         0.222092         0.085477
 C         1.405078         0.043584         0.218512
 C         2.086478        -0.611917         1.425001
 C         3.575725        -0.308997         0.988711
 O         3.943461         0.926240         1.514791
 C         3.188178         1.898360         0.813626
 C         2.484222         1.134653        -0.306380
 C         3.344247        -0.106028        -0.583654
 O         2.086690        -0.919002        -0.960599
 H        -0.430397         1.318582        -0.005479
 H        -0.524786        -0.246602        -0.799193
 H        -0.668647        -0.182262         0.888971
 H         1.924485        -0.141768         2.488292
 H         1.782388        -1.643096         1.485502
 H         4.379480        -0.951845         1.344256
 H         2.425220         2.310249         1.463054
 H         3.886436         2.783409         0.554641
 H         2.116175         1.700601        -1.139018
 H         4.174868        -0.258669        -1.251802
