19
Iteration:  1081charge 0 multiplicity 1
 C         0.032711         0.347105        -0.091791
 C         1.451882        -0.026762         0.213822
 C         2.002691        -0.090591         1.617530
 C         3.469376        -0.155387         1.234126
 O         4.014167         1.229598         1.183668
 C         3.263480         1.983832         0.234950
 C         2.537583         0.812684        -0.600465
 C         3.273571        -0.568575        -0.230159
 O         1.975260        -1.337891        -0.326400
 H        -0.135527         1.354831        -0.539683
 H        -0.271526        -0.189915        -0.961740
 H        -0.823977         0.337776         0.657854
 H         1.919638         0.851504         2.172326
 H         1.663092        -0.861759         2.106767
 H         4.175546        -0.607931         1.854423
 H         2.562400         2.681379         0.681833
 H         4.006143         2.637663        -0.255518
 H         2.268766         0.957595        -1.686085
 H         4.134662        -1.002842        -0.674490
