19
Iteration:   883
 C        -0.203865         0.050137         0.001203
 C         1.348144         0.103281         0.173764
 C         1.958427        -0.073792         1.655611
 C         3.407551        -0.175049         1.224679
 O         4.087390         1.133140         1.322515
 C         3.418893         1.902231         0.258001
 C         2.668894         0.914265        -0.572426
 C         3.285965        -0.414518        -0.347052
 O         2.044166        -1.123215        -0.504976
 H        -0.645380        -0.687105         0.621803
 H        -0.552170         1.031912         0.105320
 H        -0.527863        -0.334296        -1.033222
 H         1.533751         0.825571         2.285635
 H         1.485720        -0.928686         2.049518
 H         4.014716        -0.896035         1.928828
 H         2.759259         2.708593         0.716345
 H         4.283481         2.317268        -0.352402
 H         2.473858         1.031779        -1.647497
 H         4.172836        -0.837847        -0.875888
