19
Iteration:   102charge 0 multiplicity 1
 C        -0.000079         0.351957         0.114545
 C         1.440999         0.038259         0.126914
 C         2.138387        -0.665911         1.385841
 C         3.537490        -0.372289         0.984239
 O         3.980967         0.951370         1.509958
 C         3.025686         1.894382         0.893884
 C         2.500313         1.125236        -0.290797
 C         3.269592        -0.146956        -0.541243
 O         2.127989        -0.883284        -0.982361
 H        -0.417163         0.236160        -0.802417
 H        -0.596191        -0.352162         0.736980
 H        -0.357513         1.352501         0.523593
 H         1.779993        -0.360430         2.296839
 H         2.036349        -1.805575         1.301942
 H         4.353993        -1.104502         1.239023
 H         2.199550         2.138253         1.622491
 H         3.544818         2.764162         0.601121
 H         2.296402         1.635472        -1.232233
 H         4.178558        -0.220267        -1.218317
