19
Iteration:  2544charge 0 multiplicity 1
 C        -0.107545         0.232807        -0.067424
 C         1.419587        -0.006423         0.177321
 C         1.986117         0.065381         1.668581
 C         3.547195        -0.187439         1.270107
 O         4.056022         1.223896         1.159306
 C         3.308011         1.948107         0.108809
 C         2.552983         0.805723        -0.596062
 C         3.225831        -0.525068        -0.202384
 O         1.999729        -1.287759        -0.286441
 H        -0.305143         1.260383         0.376804
 H        -0.252523         0.019561        -1.158631
 H        -0.694540        -0.551039         0.348541
 H         2.097120         0.998966         2.271562
 H         1.415098        -0.778756         2.165255
 H         4.107028        -0.929680         1.851704
 H         2.748900         2.723468         0.485386
 H         4.149687         2.465880        -0.415209
 H         2.387573         0.792608        -1.719677
 H         3.974296        -0.915145        -0.870464
