19
Iteration:   942
 C        -0.046902         0.453348        -0.185742
 C         1.446403        -0.007645         0.159207
 C         2.103704        -0.219849         1.679272
 C         3.581830        -0.189170         1.224301
 O         3.975939         1.212176         1.194361
 C         3.151803         1.900673         0.266383
 C         2.569688         0.827181        -0.562385
 C         3.325307        -0.513387        -0.217425
 O         1.971459        -1.224565        -0.360884
 H        -0.736163        -0.174735        -0.771448
 H        -0.641064         0.453546         0.752055
 H         0.111785         1.383024        -0.527753
 H         1.809473         0.599495         2.365026
 H         1.699956        -1.303959         2.047145
 H         4.230283        -0.778205         1.735574
 H         2.249388         2.399083         0.683654
 H         3.715322         2.727744        -0.195265
 H         2.287354         0.930533        -1.654506
 H         4.242010        -0.990973        -0.529547
