19
Iteration:  3666
 C        -0.015059         0.204970         0.020240
 C         1.463167         0.096700         0.127468
 C         1.896315        -0.060190         1.571389
 C         3.465086        -0.151809         1.198348
 O         4.023360         1.196647         1.295426
 C         3.316345         1.923323         0.195212
 C         2.604979         0.884144        -0.585297
 C         3.286366        -0.587956        -0.310771
 O         1.985106        -1.217663        -0.378365
 H        -0.418306        -0.480138        -0.787949
 H        -0.327112        -0.231032         0.955775
 H        -0.451164         1.244331        -0.026011
 H         1.778600         0.757817         2.308456
 H         1.342893        -0.897073         2.204012
 H         4.165703        -0.839608         1.831696
 H         2.590749         2.566379         0.718581
 H         4.090556         2.445516        -0.381950
 H         2.388682         1.110086        -1.628821
 H         4.204359        -0.985280        -0.863680
