19
Iteration:  3001charge 0 multiplicity 1
 C        -0.103821         0.042821         0.009920
 C         1.407276         0.079094         0.143765
 C         1.877455         0.090483         1.596778
 C         3.450846        -0.083353         1.211735
 O         4.093277         1.149370         1.221905
 C         3.348083         1.906527         0.205549
 C         2.626475         0.808877        -0.583981
 C         3.335759        -0.527497        -0.256200
 O         1.971941        -1.204641        -0.348172
 H        -0.514772         0.914167        -0.509355
 H        -0.550210        -0.749278        -0.505303
 H        -0.519188         0.124854         0.975348
 H         1.801630         1.077704         2.071486
 H         1.431537        -0.696465         2.235539
 H         3.934677        -0.756511         1.857504
 H         2.850335         2.822655         0.489777
 H         4.071339         2.287566        -0.516735
 H         2.631381         1.003960        -1.722339
 H         4.222624        -0.886489        -0.680455
