19
Iteration:  3583
 C        -0.028835         0.272899        -0.157813
 C         1.421209         0.083990         0.212487
 C         2.007748        -0.021652         1.624127
 C         3.569876        -0.199376         1.276699
 O         4.053031         1.236367         1.213417
 C         3.241848         1.884402         0.234462
 C         2.538601         0.777746        -0.555293
 C         3.261116        -0.562859        -0.282446
 O         1.975156        -1.220299        -0.307394
 H        -0.188022         1.011956        -0.920938
 H        -0.539377        -0.669456        -0.554838
 H        -0.679324         0.587901         0.686176
 H         2.028812         0.848621         2.235564
 H         1.521761        -0.848375         2.097652
 H         4.131263        -0.998469         1.876131
 H         2.535889         2.666837         0.550756
 H         3.859641         2.405393        -0.547077
 H         2.279425         0.964252        -1.654512
 H         4.169014        -0.984146        -0.879811
