19
Iteration:  4714
 C         0.008640         0.310428        -0.043569
 C         1.399293         0.062739         0.253175
 C         1.924239         0.031960         1.655849
 C         3.493709         0.028231         1.337341
 O         4.059883         1.323051         1.071570
 C         3.321710         1.804522        -0.165064
 C         2.613842         0.635988        -0.620825
 C         3.273411        -0.657114        -0.127533
 O         1.914980        -1.276441        -0.147172
 H        -0.427923        -0.567152        -0.365178
 H        -0.501159         0.641507         0.895068
 H        -0.023548         1.036733        -0.775096
 H         1.655409         0.840253         2.301461
 H         1.790582        -0.973173         2.182867
 H         4.229619        -0.566291         1.907153
 H         2.653431         2.570859         0.347891
 H         3.882756         2.299686        -0.934399
 H         2.336179         0.628961        -1.654403
 H         4.092761        -1.192454        -0.559029
