19
Iteration:  3169charge 0 multiplicity 1
 C        -0.053861         0.155531        -0.136933
 C         1.419343         0.082565         0.286745
 C         1.955197         0.080283         1.662248
 C         3.462101        -0.149544         1.268913
 O         4.076855         1.182134         1.139819
 C         3.385570         1.910649         0.108632
 C         2.498255         0.834500        -0.562226
 C         3.284300        -0.591568        -0.284751
 O         1.989260        -1.247667        -0.218756
 H        -0.871626         0.282451         0.551897
 H        -0.244896         0.898398        -0.898204
 H        -0.160256        -0.807408        -0.738031
 H         1.616596         1.091494         2.007340
 H         1.460903        -0.731207         2.300726
 H         4.119271        -0.679065         1.996636
 H         2.917144         2.849025         0.562768
 H         4.080671         2.328238        -0.597516
 H         2.235468         1.143607        -1.541307
 H         4.086567        -1.135588        -0.879602
