19
Iteration:  1841
 C        -0.108128        -0.005657        -0.082677
 C         1.379960         0.054783         0.274968
 C         1.899423         0.147555         1.636396
 C         3.488399        -0.106136         1.212138
 O         4.138081         1.036371         1.189771
 C         3.447160         1.907330         0.156254
 C         2.518351         0.946824        -0.608443
 C         3.242050        -0.470126        -0.264844
 O         2.014221        -1.173880        -0.271813
 H        -0.903524         0.487779         0.588774
 H        -0.302718         0.314678        -1.082979
 H        -0.365538        -1.116229        -0.218571
 H         1.648764         1.070717         2.075062
 H         1.509444        -0.608481         2.300113
 H         3.960259        -0.833544         1.815949
 H         2.907623         2.793680         0.567276
 H         4.266151         2.211108        -0.508300
 H         2.165541         1.259557        -1.698210
 H         3.983032        -1.009968        -0.800690
