19
Iteration:  2700
 C        -0.140683         0.147125        -0.049091
 C         1.391328         0.057494         0.155790
 C         1.982391         0.064557         1.654971
 C         3.417842        -0.164855         1.249565
 O         4.066536         1.208813         1.210716
 C         3.389895         1.861992         0.092625
 C         2.657617         0.822365        -0.654397
 C         3.241738        -0.513652        -0.248944
 O         2.012366        -1.230192        -0.257942
 H        -0.626918         0.789924         0.736150
 H        -0.575720         0.344159        -0.998420
 H        -0.414817        -0.901851         0.301042
 H         1.845211         1.039734         2.085745
 H         1.601915        -0.623033         2.506996
 H         4.003380        -0.846892         1.838575
 H         2.658579         2.717371         0.438962
 H         4.144406         2.388322        -0.585085
 H         2.371141         1.096002        -1.659090
 H         4.158104        -0.899972        -0.710180
