19
Iteration:  1579
 C        -0.003367         0.361766         0.051486
 C         1.482399         0.076843         0.180363
 C         1.946318        -0.188484         1.646344
 C         3.452234        -0.045292         1.294650
 O         3.897070         1.272493         1.219523
 C         3.371592         1.836786         0.037544
 C         2.616444         0.706094        -0.688203
 C         3.253083        -0.561310        -0.202353
 O         2.026481        -1.216993        -0.325222
 H        -0.431138         1.046746         0.841013
 H        -0.332119         0.754679        -0.904014
 H        -0.469128        -0.548335         0.101057
 H         1.612097         0.495195         2.402556
 H         1.440975        -1.215267         1.925030
 H         4.306841        -0.542389         1.806507
 H         2.754540         2.720793         0.402352
 H         4.122665         2.409525        -0.670980
 H         2.375962         0.995834        -1.822232
 H         4.122639        -1.177322        -0.620145
