19
Iteration:   963charge 0 multiplicity 1
 C         0.058260         0.404977        -0.092266
 C         1.415888         0.029733         0.236175
 C         1.998348        -0.154920         1.627517
 C         3.529910        -0.123282         1.230321
 O         4.019427         1.223605         1.227570
 C         3.192920         1.903168         0.244254
 C         2.586265         0.807927        -0.543661
 C         3.252400        -0.567797        -0.300333
 O         2.011652        -1.275300        -0.387316
 H        -0.110965        -0.021830        -1.082838
 H        -0.737726        -0.102975         0.439340
 H        -0.073662         1.438536        -0.153039
 H         1.678809         0.601237         2.408863
 H         1.658397        -1.256771         1.961821
 H         4.074440        -0.624149         1.952116
 H         2.436575         2.580168         0.775512
 H         3.770652         2.656887        -0.334734
 H         2.179066         0.949086        -1.576315
 H         3.930367        -0.930489        -1.050892
