19
Iteration:  4975
 C         0.007807         0.299434        -0.021159
 C         1.345015        -0.010459         0.183263
 C         1.978137         0.137239         1.677154
 C         3.511318        -0.001155         1.300582
 O         4.055865         1.296954         1.060483
 C         3.308461         1.853060        -0.123624
 C         2.592776         0.619232        -0.655570
 C         3.246143        -0.610070        -0.133643
 O         1.979263        -1.339264        -0.099988
 H        -0.631001        -0.551536        -0.494727
 H        -0.497046         0.464511         1.015630
 H        -0.220040         1.162983        -0.622903
 H         1.776554         1.159404         1.985294
 H         1.500123        -0.570636         2.448127
 H         4.132678        -0.541899         2.056891
 H         2.553974         2.597028         0.242243
 H         4.108912         2.166343        -0.787023
 H         2.452129         0.669845        -1.742517
 H         4.093660        -1.266069        -0.584444
