19
Iteration:   548
 C        -0.092144         0.094054        -0.068912
 C         1.371593         0.114646         0.160611
 C         1.948548        -0.250589         1.572657
 C         3.509556        -0.243196         1.114088
 O         4.152761         0.998760         1.309682
 C         3.285951         1.956285         0.529252
 C         2.517972         1.035464        -0.386943
 C         3.249897        -0.362664        -0.449625
 O         2.062642        -1.042554        -0.600352
 H        -0.509656         0.809041        -0.741420
 H        -0.193588        -0.868023        -0.532990
 H        -0.760119         0.214999         0.814272
 H         1.790521         0.618098         2.175359
 H         1.546362        -1.100762         2.166839
 H         3.970872        -1.007460         1.756842
 H         2.642389         2.532895         1.249358
 H         3.950837         2.686155         0.194968
 H         2.277348         1.308920        -1.343676
 H         4.056179        -0.556196        -1.145139
