19
Iteration:   918charge 0 multiplicity 1
 C         0.038781         0.348044        -0.044411
 C         1.494088         0.062913         0.180333
 C         1.945812        -0.107953         1.619105
 C         3.451982        -0.158966         1.242660
 O         4.032088         1.194101         1.263375
 C         3.191571         1.916729         0.313307
 C         2.537508         0.809348        -0.530398
 C         3.278265        -0.524105        -0.404419
 O         2.047264        -1.284677        -0.426808
 H        -0.476864        -0.579496        -0.154956
 H        -0.489986         0.732057         0.767587
 H        -0.029337         0.999733        -0.924586
 H         1.696579         0.818841         2.315536
 H         1.534338        -1.090075         2.049665
 H         4.031100        -0.905046         1.834230
 H         2.458689         2.676174         0.708283
 H         3.858368         2.536147        -0.369497
 H         2.423279         1.030784        -1.650748
 H         4.177261        -0.862828        -0.869356
