19
Iteration:   571
 C        -0.052026         0.129474         0.040564
 C         1.410794         0.033731         0.096632
 C         2.034640        -0.277973         1.549737
 C         3.464020        -0.244294         1.161203
 O         4.010173         1.067478         1.404317
 C         3.273191         1.923478         0.413914
 C         2.608079         1.049622        -0.491289
 C         3.270829        -0.339451        -0.356052
 O         2.000591        -1.037830        -0.647983
 H        -0.381783         1.198575        -0.005119
 H        -0.514810        -0.403379        -0.792062
 H        -0.580632        -0.104054         0.953874
 H         1.827531         0.216672         2.486197
 H         1.676696        -1.380116         1.721846
 H         4.097447        -1.011099         1.690785
 H         2.683345         2.709278         0.930602
 H         4.088282         2.502937        -0.016781
 H         2.427241         1.298788        -1.524330
 H         4.096600        -0.728595        -0.924432
