19
Iteration:   782
 C        -0.016196         0.478896        -0.012722
 C         1.452264         0.025626         0.098448
 C         2.054209        -0.240673         1.662582
 C         3.512587        -0.238405         1.276446
 O         3.977599         1.193264         1.269140
 C         3.065800         1.939550         0.371226
 C         2.601484         0.864679        -0.556505
 C         3.265868        -0.499295        -0.368253
 O         2.090366        -1.267726        -0.543337
 H        -0.046267         1.408207        -0.621487
 H        -0.547814        -0.447878        -0.418919
 H        -0.479516         0.532914         0.929165
 H         1.854778         0.442275         2.570427
 H         1.723755        -1.256756         1.948369
 H         4.214740        -0.908326         1.673399
 H         2.227913         2.536242         0.896399
 H         3.822476         2.585108        -0.129860
 H         2.437694         1.143659        -1.566115
 H         4.180132        -0.748653        -0.949590
