19
Iteration:  3548
 C        -0.024912         0.355562         0.053376
 C         1.422561         0.017945         0.125324
 C         1.879539        -0.094319         1.566814
 C         3.446437        -0.220016         1.268830
 O         4.018959         1.274507         1.203193
 C         3.240236         1.899419         0.118855
 C         2.582066         0.716572        -0.630825
 C         3.367068        -0.497070        -0.186516
 O         2.056771        -1.241550        -0.358728
 H        -0.001833         1.345390        -0.376427
 H        -0.635602        -0.327198        -0.444149
 H        -0.283535         0.553851         1.101889
 H         1.753724         0.722803         2.194201
 H         1.410749        -0.966846         2.099978
 H         4.072473        -0.849371         1.987660
 H         2.560353         2.602790         0.593390
 H         4.005153         2.440256        -0.505565
 H         2.468473         1.001216        -1.664831
 H         4.189029        -1.126564        -0.686593
