19
Iteration:  3109
 C        -0.023950         0.232324         0.012545
 C         1.417133         0.063753         0.142937
 C         1.960634         0.114469         1.663939
 C         3.411836        -0.126613         1.270110
 O         4.034674         1.189484         1.220620
 C         3.301172         1.857195         0.130341
 C         2.557231         0.775861        -0.620955
 C         3.294409        -0.530939        -0.264806
 O         2.039267        -1.289509        -0.355919
 H        -0.270601         1.257991         0.431707
 H        -0.327598         0.116914        -1.096603
 H        -0.508035        -0.541478         0.616790
 H         1.648366         1.022226         2.274862
 H         1.574931        -0.782215         2.228069
 H         4.029954        -0.861264         1.728751
 H         2.547127         2.504887         0.564976
 H         4.114220         2.361518        -0.480454
 H         2.481793         0.761432        -1.783548
 H         4.212025        -0.810856        -0.723733
