19
Iteration:  3123charge 0 multiplicity 1
 C        -0.062343         0.148957        -0.010261
 C         1.453794         0.086504         0.198504
 C         1.905355         0.040200         1.569118
 C         3.432774        -0.078184         1.278457
 O         4.072686         1.192572         1.156529
 C         3.389090         1.897890         0.137007
 C         2.628884         0.782566        -0.578753
 C         3.211926        -0.547137        -0.178774
 O         2.022355        -1.268569        -0.373984
 H        -0.490262         0.982762         0.661288
 H        -0.517969         0.322086        -0.931411
 H        -0.533250        -0.819139         0.279446
 H         1.877494         0.998262         2.081375
 H         1.333616        -0.785949         2.231150
 H         3.974624        -0.558150         2.158825
 H         2.726328         2.692468         0.566225
 H         4.037486         2.462614        -0.570873
 H         2.297077         1.135458        -1.629678
 H         3.973371        -1.124244        -0.748838
