19
Iteration:  2527
 C        -0.057892         0.104254        -0.165760
 C         1.393921         0.115395         0.251675
 C         1.988532         0.069397         1.699622
 C         3.464066        -0.086229         1.261021
 O         4.180151         1.154187         1.101731
 C         3.315618         1.842918         0.138224
 C         2.517249         0.806961        -0.542520
 C         3.258709        -0.551215        -0.226205
 O         1.938478        -1.178637        -0.280399
 H        -0.616186         0.974018         0.293177
 H        -0.128449         0.221847        -1.222752
 H        -0.507733        -0.890092         0.162378
 H         1.717896         1.036995         2.082457
 H         1.765807        -0.807339         2.369467
 H         4.085593        -0.707154         1.939681
 H         2.647074         2.651104         0.743611
 H         3.962412         2.404411        -0.575505
 H         2.206487         1.029787        -1.578119
 H         4.115849        -1.076313        -0.741631
