19
Iteration:  4813
 C        -0.001921         0.283967        -0.132831
 C         1.446553         0.006702         0.201532
 C         2.027644         0.210253         1.750181
 C         3.461954         0.043222         1.271839
 O         4.098819         1.249679         1.032220
 C         3.314546         1.808759        -0.142984
 C         2.530379         0.681517        -0.630338
 C         3.197982        -0.646636        -0.097558
 O         1.931218        -1.365844        -0.034726
 H        -0.152784         0.521412        -1.206507
 H        -0.643840        -0.541675         0.168864
 H        -0.235147         1.150331         0.407891
 H         1.769539         1.131995         2.277600
 H         1.587834        -0.677855         2.306090
 H         4.106721        -0.485840         2.088970
 H         2.560433         2.510069         0.216836
 H         4.033865         2.207719        -0.830424
 H         2.425150         0.574007        -1.718136
 H         4.048171        -1.125470        -0.696564
