19
Iteration:  4868
 C         0.021298         0.424221         0.070949
 C         1.482515         0.070507         0.206565
 C         1.984048         0.057501         1.659174
 C         3.426353         0.050471         1.288997
 O         3.957361         1.369517         0.994977
 C         3.332448         1.774459        -0.165756
 C         2.585284         0.615160        -0.694935
 C         3.295904        -0.726890        -0.045136
 O         1.951226        -1.369371        -0.105606
 H        -0.153180         0.881658        -0.969812
 H        -0.538001        -0.521313         0.087790
 H        -0.411165         1.027143         0.816645
 H         1.529979         0.962674         2.132923
 H         1.465665        -0.840249         2.162261
 H         4.090995        -0.291454         2.233479
 H         2.753801         2.696484        -0.062598
 H         4.105076         2.121407        -0.828735
 H         2.568655         0.263126        -1.732020
 H         4.220023        -1.423014        -0.300848
