19
Iteration:  2803
 C        -0.043388         0.189267        -0.012694
 C         1.372396        -0.019452         0.143438
 C         1.992932         0.041063         1.584516
 C         3.399804        -0.059385         1.309649
 O         4.130507         1.144342         1.118094
 C         3.317882         1.903589         0.191120
 C         2.583115         0.832752        -0.582168
 C         3.250494        -0.530782        -0.265061
 O         2.018436        -1.246698        -0.273106
 H        -0.316902         1.259754        -0.083953
 H        -0.298721        -0.332883        -1.051027
 H        -0.749020        -0.318802         0.699496
 H         1.706975         1.060933         2.063419
 H         1.482483        -0.695474         2.128763
 H         4.102091        -0.598769         2.008675
 H         2.516428         2.509779         0.763142
 H         3.963539         2.540556        -0.425268
 H         2.307852         1.008844        -1.676230
 H         4.135908        -1.022219        -0.766652
