19
Iteration:  4920charge 0 multiplicity 1
 C        -0.052863        -0.014602        -0.125866
 C         1.366379         0.142871         0.269008
 C         1.972561         0.349291         1.628435
 C         3.464590        -0.093092         1.294977
 O         4.229850         1.189597         0.999479
 C         3.425443         1.865956        -0.071711
 C         2.528113         0.733009        -0.564735
 C         3.182376        -0.586733        -0.185137
 O         1.911151        -1.276664        -0.016148
 H        -0.271818        -0.540728        -1.117873
 H        -0.701280        -0.578514         0.702605
 H        -0.521369         0.970343        -0.110366
 H         1.726559         1.360330         1.893191
 H         1.363866        -0.390997         2.261549
 H         3.940149        -0.721627         2.041676
 H         2.884229         2.804917         0.257436
 H         4.180698         2.207171        -0.790864
 H         2.143549         0.786020        -1.599362
 H         4.072855        -1.200331        -0.598036
