19
Iteration:  4554
 C         0.005519         0.284555        -0.074978
 C         1.414283         0.031275         0.271201
 C         1.947059         0.028938         1.647349
 C         3.491821        -0.001920         1.350299
 O         4.105532         1.260385         0.985954
 C         3.276364         1.911752        -0.023568
 C         2.594053         0.664186        -0.662616
 C         3.290598        -0.653648        -0.091675
 O         1.908391        -1.290909        -0.189310
 H        -0.490640         0.688354         0.914736
 H        -0.101927         1.141053        -0.818124
 H        -0.526046        -0.585841        -0.451787
 H         1.680294         0.845854         2.325196
 H         1.597501        -0.866279         2.191625
 H         4.205806        -0.553222         2.089937
 H         2.398875         2.520225         0.313774
 H         4.048499         2.523360        -0.540504
 H         2.221624         0.687939        -1.673877
 H         4.214586        -1.034701        -0.485776
