19
Iteration:  4646charge 0 multiplicity 1
 C        -0.064730         0.230622        -0.003504
 C         1.438541         0.019239         0.170938
 C         1.952238         0.165391         1.637588
 C         3.448093         0.016230         1.287871
 O         4.136214         1.198887         1.049439
 C         3.277014         1.886008        -0.027973
 C         2.684689         0.693149        -0.643482
 C         3.206568        -0.620645        -0.069104
 O         1.955515        -1.325598        -0.206315
 H        -0.578773        -0.538613         0.538450
 H        -0.345422         1.121148         0.563538
 H        -0.449526         0.289458        -1.042168
 H         1.565932         1.118007         2.107842
 H         1.579280        -0.697393         2.248584
 H         3.986208        -0.506531         1.991973
 H         2.527115         2.630296         0.376935
 H         4.063443         2.371431        -0.612287
 H         2.565273         0.796537        -1.750832
 H         4.020922        -1.178563        -0.535855
