19
Iteration:  2094
 C         0.001156         0.511406        -0.085018
 C         1.442537        -0.002385         0.194055
 C         1.992623        -0.096797         1.674397
 C         3.531572        -0.171503         1.213806
 O         3.942945         1.242367         1.174390
 C         3.160194         1.832424         0.136361
 C         2.538919         0.745988        -0.625567
 C         3.317592        -0.524339        -0.284045
 O         2.096474        -1.329149        -0.231498
 H        -0.294648         1.254882         0.616766
 H        -0.110042         0.873021        -1.053230
 H        -0.806704        -0.280125         0.086231
 H         1.979700         0.828504         2.382252
 H         1.569595        -0.978100         2.156129
 H         4.041846        -0.721753         2.073995
 H         2.315119         2.435773         0.507844
 H         3.904227         2.500890        -0.454399
 H         2.518464         1.055270        -1.642009
 H         4.144635        -1.062003        -0.841692
