19
Iteration:   975charge 0 multiplicity 1
 C         0.021318         0.299482        -0.095439
 C         1.475181        -0.008108         0.227771
 C         1.958128        -0.090946         1.646548
 C         3.467784        -0.125068         1.259155
 O         4.014379         1.178866         1.226188
 C         3.292369         1.893480         0.222028
 C         2.517864         0.807872        -0.574640
 C         3.258045        -0.485506        -0.353739
 O         2.015451        -1.236430        -0.374847
 H        -0.080122         0.380298        -1.184584
 H        -0.688585        -0.278061         0.531060
 H        -0.158903         1.240676         0.278210
 H         1.637132         0.774962         2.240584
 H         1.614454        -1.097126         2.232131
 H         4.151987        -0.747145         1.719749
 H         2.460230         2.480522         0.725159
 H         4.009720         2.541105        -0.274373
 H         2.211190         1.142213        -1.570712
 H         4.184671        -0.952116        -0.695408
