19
Iteration:  4650charge 0 multiplicity 1
 C        -0.042725         0.271488        -0.020176
 C         1.475985         0.027606         0.174665
 C         1.944569         0.157994         1.631515
 C         3.460316         0.010073         1.319537
 O         4.092806         1.223730         1.052829
 C         3.292746         1.882962        -0.000042
 C         2.648272         0.693212        -0.688530
 C         3.224141        -0.626671        -0.116399
 O         1.952895        -1.371549        -0.182412
 H        -0.618877        -0.561742         0.387239
 H        -0.338198         1.165216         0.612048
 H        -0.395528         0.427999        -0.998958
 H         1.688996         1.057421         2.122474
 H         1.620791        -0.659480         2.296669
 H         4.092157        -0.483303         2.139152
 H         2.586666         2.531895         0.508446
 H         3.962853         2.358276        -0.765275
 H         2.344428         0.820745        -1.702945
 H         3.996209        -1.234025        -0.529068
