19
Iteration:  4337charge 0 multiplicity 1
 C        -0.069702         0.349044         0.013751
 C         1.455749         0.017421         0.223347
 C         1.982017        -0.026205         1.627150
 C         3.440595        -0.055843         1.236608
 O         3.969943         1.256549         1.205209
 C         3.323196         1.879339         0.011212
 C         2.558154         0.731331        -0.599305
 C         3.297497        -0.616050        -0.261352
 O         2.044737        -1.304089        -0.271728
 H        -0.528887        -0.519428        -0.492508
 H        -0.410239         0.314529         0.987837
 H        -0.285211         1.310031        -0.396892
 H         1.784573         1.001489         2.060727
 H         1.513437        -0.777689         2.292338
 H         4.177089        -0.603249         1.814658
 H         2.902201         2.816925         0.324675
 H         4.141675         2.149921        -0.641944
 H         2.198204         0.807437        -1.564096
 H         4.127319        -1.028736        -0.730270
