19
Iteration:  4383charge 0 multiplicity 1
 C         0.023684         0.293199        -0.090124
 C         1.404940         0.086011         0.254295
 C         1.966597        -0.026589         1.693802
 C         3.520142        -0.126244         1.282866
 O         4.045909         1.308133         1.085173
 C         3.296069         1.877887        -0.023170
 C         2.556882         0.756870        -0.550614
 C         3.257503        -0.637543        -0.165327
 O         1.936475        -1.272642        -0.243363
 H        -0.065505         0.151012        -1.198021
 H        -0.540710        -0.436271         0.447959
 H        -0.319618         1.312719         0.301664
 H         1.677245         0.575574         2.608286
 H         1.775744        -1.057430         1.945048
 H         4.368917        -0.568858         1.898769
 H         2.486909         2.556258         0.293301
 H         3.934651         2.523472        -0.661236
 H         2.241018         0.958096        -1.590212
 H         4.117637        -1.200609        -0.727101
