19
Iteration:  4741
 C        -0.144552         0.117291         0.052289
 C         1.347547         0.061389         0.178123
 C         1.946661         0.308407         1.609389
 C         3.409777        -0.040862         1.292980
 O         4.082661         1.203306         1.086025
 C         3.403822         1.864533        -0.048348
 C         2.670918         0.702950        -0.628846
 C         3.213051        -0.631964        -0.192411
 O         2.021337        -1.307452        -0.147850
 H        -0.602535        -0.845942        -0.386766
 H        -0.504323         0.246800         1.063304
 H        -0.420957         1.027757        -0.610274
 H         1.930258         1.338689         2.058799
 H         1.655647        -0.344979         2.394373
 H         4.037930        -0.697529         1.961993
 H         2.958179         2.783197         0.354582
 H         4.156679         2.032666        -0.884714
 H         2.597591         0.706058        -1.754193
 H         4.065523        -1.100829        -0.757277
