19
Iteration:   115
 C        -0.053987         0.364292         0.150224
 C         1.504612        -0.044104         0.121006
 C         2.060761        -0.694769         1.380725
 C         3.599838        -0.321872         1.000668
 O         3.903056         0.947594         1.471831
 C         3.053749         1.872317         0.875982
 C         2.505155         1.104641        -0.330469
 C         3.397471        -0.113704        -0.570573
 O         2.090332        -0.875805        -0.931817
 H        -0.231284         0.941193        -0.777449
 H        -0.656556        -0.510532         0.389203
 H         0.038321         1.151535         0.935958
 H         1.785975        -0.210840         2.379468
 H         1.743252        -1.798992         1.351631
 H         4.399376        -1.016271         1.309910
 H         2.160235         2.084161         1.520261
 H         3.558334         2.748912         0.738400
 H         1.952026         1.732865        -1.146931
 H         4.254070        -0.207540        -1.282535
