19
Iteration:   628charge 0 multiplicity 1
 C        -0.015546         0.387349        -0.000140
 C         1.481353        -0.013713         0.198555
 C         2.003553        -0.390556         1.547076
 C         3.619086        -0.274087         1.144007
 O         3.914354         1.151097         1.330399
 C         3.161405         1.979315         0.401371
 C         2.528186         0.928368        -0.455009
 C         3.337666        -0.382381        -0.385860
 O         2.027293        -1.138345        -0.569807
 H        -0.574701         0.612414         0.974202
 H         0.014533         1.385085        -0.526258
 H        -0.406075        -0.374379        -0.583918
 H         1.809408         0.367973         2.368317
 H         1.493236        -1.470002         1.717876
 H         4.283263        -0.910495         1.723945
 H         2.435129         2.572741         0.970989
 H         4.002984         2.517667        -0.115750
 H         2.043568         1.125052        -1.493415
 H         4.150497        -0.778715        -1.003548
