19
Iteration:   749
 C         0.014596         0.278678        -0.005574
 C         1.433163        -0.018913         0.126320
 C         1.975534        -0.269086         1.609455
 C         3.448229        -0.246377         1.219293
 O         3.954804         1.157443         1.359233
 C         3.271564         1.929607         0.303312
 C         2.568260         0.910433        -0.511410
 C         3.268666        -0.376929        -0.390276
 O         2.055116        -1.115796        -0.504373
 H        -0.339084         0.423163        -1.051097
 H        -0.481864        -0.665244         0.348081
 H        -0.114508         1.091616         0.652163
 H         1.702189         0.527283         2.381053
 H         1.581072        -1.275545         1.930762
 H         4.184406        -0.861396         1.623177
 H         2.672773         2.827321         0.594893
 H         4.136514         2.370371        -0.248198
 H         2.347177         1.242748        -1.517084
 H         4.096332        -0.771294        -0.999388
