19
Iteration:  2219
 C        -0.049218         0.271570        -0.114237
 C         1.428066         0.039671         0.156326
 C         1.907855        -0.010922         1.676014
 C         3.515304        -0.115850         1.246485
 O         4.106235         1.152067         1.152489
 C         3.242165         1.920245         0.191636
 C         2.544780         0.821484        -0.621506
 C         3.300609        -0.585083        -0.235834
 O         2.010038        -1.236715        -0.259364
 H        -0.264502         1.309174        -0.396431
 H        -0.466728        -0.342488        -0.896808
 H        -0.576329        -0.056013         0.708110
 H         1.701544         0.791363         2.296356
 H         1.649805        -0.927654         2.261591
 H         4.174041        -0.571527         1.950239
 H         2.653844         2.623974         0.870779
 H         3.857119         2.628639        -0.406939
 H         2.428547         0.908105        -1.781893
 H         4.017316        -1.043036        -0.875613
