19
Iteration:  2597charge 0 multiplicity 1
 C        -0.026363         0.434069         0.037062
 C         1.453195        -0.011013         0.240983
 C         2.002680        -0.151006         1.654911
 C         3.466297        -0.051237         1.200046
 O         3.882165         1.279760         1.174641
 C         3.254950         1.892133         0.000313
 C         2.661948         0.700632        -0.563445
 C         3.341978        -0.607470        -0.163073
 O         2.000161        -1.256542        -0.372635
 H        -0.169119         1.512142        -0.112183
 H        -0.391562         0.007416        -0.974201
 H        -0.578176         0.032140         0.865730
 H         2.001806         0.734153         2.400489
 H         1.684082        -1.090145         2.136384
 H         4.114885        -0.663741         1.862299
 H         2.429180         2.605760         0.480661
 H         4.032202         2.423850        -0.587177
 H         2.385072         0.782548        -1.647842
 H         4.220577        -1.127014        -0.534295
