19
Iteration:  3523
 C        -0.087519         0.306223        -0.033646
 C         1.414279         0.079858         0.223913
 C         1.978457        -0.097122         1.660477
 C         3.491580        -0.057791         1.306321
 O         4.002666         1.240495         1.178708
 C         3.338540         1.917559         0.139001
 C         2.614936         0.726389        -0.631765
 C         3.274354        -0.557168        -0.220365
 O         1.983319        -1.269781        -0.410772
 H        -0.254732         1.359441        -0.371116
 H        -0.369446        -0.365366        -0.836927
 H        -0.577076        -0.024169         0.864651
 H         1.517518         0.605898         2.442093
 H         1.824601        -1.161841         2.037340
 H         4.163268        -0.647761         1.858570
 H         2.743078         2.725565         0.606349
 H         4.181027         2.392686        -0.360183
 H         2.365250         0.994963        -1.638092
 H         4.039816        -1.161611        -0.614555
