19
Iteration:  2205charge 0 multiplicity 1
 C        -0.139118         0.157681        -0.152427
 C         1.399689         0.054817         0.201756
 C         2.048560         0.022419         1.657808
 C         3.446501        -0.135408         1.315290
 O         4.105848         1.141912         1.062668
 C         3.336083         1.914520         0.225772
 C         2.593399         0.824908        -0.526624
 C         3.230472        -0.494426        -0.194428
 O         1.994337        -1.214513        -0.335061
 H        -0.326553         1.112083        -0.521211
 H        -0.336940        -0.617416        -0.993995
 H        -0.829241        -0.032179         0.728239
 H         1.872140         1.002240         2.275368
 H         1.530554        -0.737434         2.145657
 H         4.038018        -0.876240         1.935561
 H         2.615105         2.608272         0.620202
 H         4.080112         2.534890        -0.414192
 H         2.326114         1.057172        -1.504077
 H         4.150614        -0.962559        -0.634813
