19
Iteration:  1163charge 0 multiplicity 1
 C        -0.119421         0.086436        -0.077730
 C         1.379005         0.051415         0.199014
 C         2.010449         0.082825         1.699809
 C         3.363665        -0.071689         1.219737
 O         4.081157         1.116502         1.237354
 C         3.425374         1.878234         0.071161
 C         2.635049         0.859960        -0.612446
 C         3.269495        -0.489705        -0.201779
 O         1.939426        -1.173403        -0.316106
 H        -0.717828         0.488023         0.720349
 H        -0.386560         0.433301        -1.119861
 H        -0.368754        -0.930551        -0.207989
 H         1.782549         0.859021         2.411627
 H         1.682641        -0.946913         2.198803
 H         4.141017        -0.761754         1.712901
 H         2.843649         2.830704         0.396998
 H         4.282920         2.148046        -0.602683
 H         2.345277         0.992731        -1.613293
 H         4.206224        -0.904129        -0.600493
