19
Iteration:  4547charge 0 multiplicity 1
 C         0.002980         0.372461        -0.023047
 C         1.477202         0.005066         0.204914
 C         1.919161         0.009679         1.639033
 C         3.523626        -0.001133         1.393817
 O         4.049785         1.234482         1.010028
 C         3.211086         1.880990        -0.077155
 C         2.647545         0.660066        -0.641547
 C         3.293031        -0.624035        -0.134066
 O         1.930360        -1.308381        -0.167289
 H        -0.448205         0.774655         0.852580
 H        -0.120781         1.092591        -0.756611
 H        -0.576825        -0.528780        -0.368136
 H         1.565836         1.018996         2.119972
 H         1.716702        -0.891036         2.229475
 H         4.316864        -0.432595         1.981917
 H         2.448375         2.469647         0.495114
 H         3.759821         2.695677        -0.549625
 H         2.373268         0.811359        -1.744022
 H         4.095090        -1.407531        -0.482939
