19
Iteration:  1772charge 0 multiplicity 1
 C         0.072286         0.456050         0.020906
 C         1.437139        -0.042618         0.197960
 C         2.021905        -0.099405         1.579391
 C         3.514686        -0.135468         1.286241
 O         3.873497         1.189475         1.212712
 C         3.178088         1.890286         0.128847
 C         2.545290         0.783235        -0.615202
 C         3.340428        -0.536074        -0.345649
 O         2.053474        -1.296623        -0.258024
 H         0.147081         1.591681         0.133631
 H        -0.312690         0.183464        -1.061390
 H        -0.728464         0.111166         0.572319
 H         1.664157         0.705774         2.177622
 H         1.605059        -1.003583         2.176527
 H         4.209622        -0.695587         1.965936
 H         2.495924         2.666270         0.584439
 H         4.002948         2.357303        -0.615214
 H         2.296264         1.020934        -1.603388
 H         4.174965        -0.960522        -1.025497
