19
Iteration:  4877charge 0 multiplicity 1
 C        -0.000804         0.345310         0.028607
 C         1.464961         0.035231         0.228414
 C         1.908325         0.108806         1.618934
 C         3.475858         0.045865         1.336753
 O         4.013840         1.334991         1.051923
 C         3.364080         1.847061        -0.257982
 C         2.602381         0.633985        -0.624018
 C         3.247778        -0.753871        -0.041838
 O         1.948636        -1.338927        -0.094729
 H        -0.211355         0.674733        -1.037847
 H        -0.612483        -0.655588         0.065885
 H        -0.470715         1.041633         0.707880
 H         1.839517         1.023914         2.175963
 H         1.633812        -0.831586         2.212371
 H         4.169155        -0.299962         2.126006
 H         2.752142         2.727297         0.041358
 H         4.123026         2.084603        -0.991695
 H         2.357842         0.480240        -1.699950
 H         3.973299        -1.267807        -0.768240
