19
Iteration:  2805charge 0 multiplicity 1
 C        -0.065504         0.178605        -0.020692
 C         1.374598        -0.006756         0.127488
 C         1.970434         0.044839         1.600269
 C         3.411375        -0.061755         1.303738
 O         4.142303         1.147823         1.109181
 C         3.318617         1.899253         0.198516
 C         2.572197         0.821209        -0.571565
 C         3.266034        -0.539157        -0.256860
 O         2.021828        -1.231592        -0.268561
 H        -0.418899         1.288176        -0.111866
 H        -0.307320        -0.303736        -1.034287
 H        -0.680940        -0.378663         0.688644
 H         1.797393         1.040811         2.061067
 H         1.459896        -0.751204         2.104270
 H         4.082396        -0.576429         1.988586
 H         2.607520         2.495363         0.748007
 H         3.973761         2.457443        -0.429427
 H         2.253520         1.058413        -1.693845
 H         4.145865        -0.965491        -0.735543
