19
Iteration:  4897charge 0 multiplicity 1
 C        -0.094713         0.169237        -0.104581
 C         1.413425         0.017835         0.255526
 C         2.019896         0.245200         1.774655
 C         3.445232        -0.004488         1.276334
 O         4.098581         1.296754         1.041779
 C         3.433415         1.736948        -0.104309
 C         2.540201         0.692748        -0.705083
 C         3.226330        -0.577415        -0.150533
 O         1.924700        -1.304269        -0.054945
 H        -0.306428         0.214250        -1.191589
 H        -0.778083        -0.735475         0.222618
 H        -0.566029         1.064730         0.389923
 H         1.885220         1.266167         2.112771
 H         1.599698        -0.531065         2.462384
 H         4.097998        -0.533490         1.866346
 H         2.852955         2.685656         0.085885
 H         4.247245         2.030269        -0.806916
 H         2.357939         0.499080        -1.773046
 H         4.137460        -1.136469        -0.448709
