19
Iteration:  1372
 C        -0.150973         0.150543        -0.123869
 C         1.358184        -0.002949         0.170107
 C         1.992431         0.139267         1.546078
 C         3.533857        -0.103403         1.251079
 O         4.167846         1.106482         1.144360
 C         3.339794         1.894496         0.227149
 C         2.503291         0.841371        -0.512308
 C         3.298757        -0.505821        -0.237318
 O         1.967179        -1.255006        -0.229342
 H        -0.757439         0.611741         0.688285
 H        -0.370935         0.651763        -1.126918
 H        -0.448447        -0.972584        -0.475930
 H         1.792586         1.089940         1.973920
 H         1.592126        -0.479128         2.391108
 H         4.151004        -0.664213         1.902986
 H         2.839339         2.719192         0.746046
 H         4.004982         2.419071        -0.535530
 H         2.291391         1.131936        -1.591694
 H         3.951834        -1.035865        -0.852930
