19
Iteration:  3220
 C         0.007586         0.341154        -0.064463
 C         1.438340         0.062214         0.136817
 C         1.906695         0.010048         1.596725
 C         3.452536        -0.063074         1.256385
 O         4.041640         1.248709         1.100054
 C         3.211837         1.928886         0.073145
 C         2.653996         0.628348        -0.571837
 C         3.297415        -0.640068        -0.111681
 O         2.005053        -1.293853        -0.240632
 H        -0.597492        -0.229039         0.724527
 H        -0.207947         1.308947         0.373903
 H        -0.499497         0.438839        -1.014273
 H         1.784363         0.812958         2.286978
 H         1.532244        -0.926073         2.149061
 H         4.251810        -0.511867         1.897442
 H         2.419016         2.581425         0.435519
 H         4.003586         2.527066        -0.438731
 H         2.544236         0.752936        -1.722466
 H         4.109292        -1.184632        -0.620698
