19
Iteration:  4232charge 0 multiplicity 1
 C        -0.036368         0.213315        -0.055968
 C         1.422992         0.031884         0.162295
 C         2.007947        -0.071466         1.681078
 C         3.459826        -0.072604         1.254150
 O         4.111123         1.267804         1.141534
 C         3.311521         1.920187         0.037914
 C         2.546725         0.791667        -0.608530
 C         3.270629        -0.602086        -0.123599
 O         1.911661        -1.183952        -0.278390
 H        -0.445859        -0.633651         0.562206
 H        -0.492672         1.146758         0.296283
 H        -0.518352         0.049246        -1.088026
 H         1.804195         0.718595         2.418991
 H         1.751003        -1.031270         2.096243
 H         4.126302        -0.612662         1.934029
 H         2.785639         2.750085         0.572144
 H         4.095970         2.271478        -0.696720
 H         2.411592         0.729578        -1.717562
 H         4.024142        -1.190606        -0.749660
