19
Iteration:    77charge 0 multiplicity 1
 C        -0.067171         0.154054        -0.005394
 C         1.439110         0.008010         0.129205
 C         2.054417        -0.590748         1.384266
 C         3.582018        -0.394400         0.947143
 O         4.004279         0.885251         1.481810
 C         3.178332         1.876423         0.936645
 C         2.481429         1.191728        -0.227609
 C         3.337155        -0.058685        -0.556460
 O         2.049928        -0.791676        -0.884168
 H        -0.482571        -0.711830        -0.624286
 H        -0.640126         0.098328         0.934121
 H        -0.493484         1.085195        -0.431329
 H         1.670433        -0.039841         2.247892
 H         1.800640        -1.607603         1.463499
 H         4.367133        -1.120625         1.163226
 H         2.449856         2.225503         1.719762
 H         3.902536         2.741080         0.525916
 H         2.055622         1.786239        -0.993807
 H         4.150787        -0.121096        -1.266283
