19
Iteration:  3889
 C        -0.022104         0.318422        -0.029306
 C         1.424810         0.033654         0.170956
 C         1.979266         0.016932         1.643788
 C         3.504395        -0.118552         1.200406
 O         4.019215         1.199695         1.214179
 C         3.219587         1.919591         0.185225
 C         2.575654         0.694606        -0.592821
 C         3.285714        -0.598688        -0.258943
 O         2.013105        -1.253180        -0.340671
 H        -0.191655         1.024390         0.767477
 H        -0.180178         0.876293        -0.994081
 H        -0.449407        -0.627066         0.180630
 H         1.884439         1.076802         2.123446
 H         1.605419        -0.869812         2.230669
 H         4.136764        -0.640469         1.882927
 H         2.432020         2.541219         0.635519
 H         3.855927         2.566610        -0.468989
 H         2.372891         0.751114        -1.701980
 H         4.114431        -0.977709        -0.858144
