19
Iteration:  2407
 C         0.054265         0.384822        -0.032993
 C         1.452148        -0.048448         0.240196
 C         1.980864        -0.083632         1.704551
 C         3.494648        -0.086999         1.220064
 O         3.907457         1.270906         1.192974
 C         3.274297         1.899584         0.115240
 C         2.541907         0.775845        -0.559289
 C         3.280694        -0.613459        -0.292058
 O         2.006634        -1.298060        -0.313372
 H         0.247503         1.440803        -0.235055
 H        -0.326499        -0.021517        -0.908707
 H        -0.783734         0.336032         0.656975
 H         1.735094         0.786655         2.307605
 H         1.716298        -1.075072         2.096850
 H         4.244891        -0.690117         1.786455
 H         2.726401         2.742886         0.378336
 H         4.006152         2.292289        -0.587764
 H         2.463285         0.947722        -1.699141
 H         4.099312        -1.000455        -1.005260
