19
Iteration:  1571
 C        -0.012594         0.309337         0.001039
 C         1.412173         0.106185         0.183828
 C         1.936327        -0.149671         1.652756
 C         3.475351        -0.044295         1.251467
 O         3.958635         1.291611         1.224305
 C         3.320696         1.847246         0.058729
 C         2.665074         0.770871        -0.616073
 C         3.270064        -0.616465        -0.238318
 O         1.998115        -1.230634        -0.330200
 H        -0.394319         1.042961         0.727659
 H        -0.259475         0.684296        -0.942148
 H        -0.632781        -0.604286         0.335272
 H         1.672145         0.604234         2.462461
 H         1.802373        -1.170480         1.861122
 H         4.063974        -0.658984         1.954515
 H         2.623710         2.644551         0.311880
 H         4.217591         2.115174        -0.589095
 H         2.394869         0.973977        -1.654354
 H         4.103260        -1.217479        -0.688436
