19
Iteration:  1312charge 0 multiplicity 1
 C        -0.105398         0.207645        -0.018792
 C         1.349379         0.025026         0.175428
 C         1.948227        -0.020847         1.653064
 C         3.447554        -0.116560         1.203369
 O         4.082933         1.270469         1.290023
 C         3.427218         1.923576         0.087445
 C         2.578403         0.769791        -0.584127
 C         3.275120        -0.532772        -0.283458
 O         1.985439        -1.276530        -0.338504
 H        -0.455914         1.177588         0.386555
 H        -0.362121         0.066450        -1.093228
 H        -0.556193        -0.481613         0.625593
 H         1.779693         0.944608         2.268782
 H         1.588360        -0.891351         2.157818
 H         4.114916        -0.797597         1.832120
 H         2.750799         2.748273         0.432577
 H         4.208937         2.458773        -0.494599
 H         2.345782         0.911987        -1.645776
 H         4.152033        -1.048125        -0.881417
