19
Iteration:   679
 C        -0.102167         0.123379        -0.091833
 C         1.440399         0.053457         0.138412
 C         1.953923        -0.105862         1.584741
 C         3.428780        -0.230531         1.101992
 O         4.142826         1.058323         1.235830
 C         3.254134         1.920399         0.514449
 C         2.545136         0.981765        -0.372320
 C         3.241422        -0.388048        -0.387174
 O         2.071001        -1.126432        -0.517650
 H        -0.370748        -0.966018         0.084134
 H        -0.644124         0.769837         0.640770
 H        -0.127235         0.527425        -1.153098
 H         1.893169         0.741307         2.178644
 H         1.565478        -0.947419         2.135667
 H         3.927669        -1.112099         1.643237
 H         2.720611         2.587091         1.290535
 H         3.755374         2.651425        -0.109219
 H         2.348674         1.270037        -1.424719
 H         4.081734        -0.623788        -1.036273
