19
Iteration:  2967charge 0 multiplicity 1
 C        -0.076000         0.107638        -0.130121
 C         1.410733         0.017602         0.224666
 C         1.910454        -0.008270         1.692289
 C         3.456943        -0.040015         1.249816
 O         4.142226         1.186831         1.178432
 C         3.342857         1.873022         0.133767
 C         2.559861         0.792520        -0.565243
 C         3.274763        -0.463804        -0.253717
 O         1.942845        -1.184174        -0.304702
 H        -0.113100         1.120925        -0.417712
 H        -0.335762        -0.648067        -0.895657
 H        -0.660793         0.027189         0.758241
 H         1.644693         0.888058         2.348492
 H         1.674424        -0.931707         2.194983
 H         4.131871        -0.620516         1.838737
 H         2.782029         2.645392         0.644821
 H         4.168598         2.117282        -0.531173
 H         2.456604         1.017356        -1.683714
 H         4.039943        -0.937391        -0.846185
