19
Iteration:  3965charge 0 multiplicity 1
 C        -0.135934         0.058870        -0.012715
 C         1.427383         0.019007         0.211124
 C         1.945600         0.126580         1.639777
 C         3.411836        -0.155056         1.227940
 O         4.092403         1.143879         1.227366
 C         3.424256         1.925637         0.157537
 C         2.580483         0.828128        -0.559322
 C         3.256775        -0.485610        -0.287813
 O         1.976320        -1.186930        -0.372156
 H        -0.447860         0.693859         0.825187
 H        -0.309584         0.509472        -1.077965
 H        -0.495753        -0.954590         0.142080
 H         1.875278         1.152769         2.070000
 H         1.605630        -0.716672         2.252251
 H         4.069536        -0.881374         1.762571
 H         2.733688         2.712234         0.511223
 H         4.191224         2.348040        -0.519463
 H         2.344427         0.983255        -1.665842
 H         4.114555        -0.906008        -0.893980
