19
Iteration:  3029charge 0 multiplicity 1
 C        -0.060490         0.214561        -0.062040
 C         1.424981         0.097730         0.180582
 C         1.974321         0.007880         1.622955
 C         3.474374        -0.073948         1.257096
 O         4.066684         1.178313         1.250153
 C         3.295475         1.925211         0.177755
 C         2.549566         0.820170        -0.633898
 C         3.294564        -0.545072        -0.298145
 O         2.001682        -1.357126        -0.324888
 H        -0.334184         1.095394        -0.644776
 H        -0.521674        -0.726305        -0.599884
 H        -0.653291         0.268410         0.922863
 H         1.834966         0.976922         2.208607
 H         1.506949        -0.724458         2.254477
 H         4.051252        -0.772420         1.925565
 H         2.664510         2.744776         0.571003
 H         4.038679         2.511767        -0.456444
 H         2.288940         1.087727        -1.601429
 H         4.305506        -0.902709        -0.710360
