19
Iteration:  3146
 C        -0.128521         0.069797        -0.131629
 C         1.387072         0.050971         0.159038
 C         1.989022         0.111597         1.719794
 C         3.438942        -0.097151         1.243447
 O         4.154140         1.188215         1.204316
 C         3.432557         1.867504         0.081202
 C         2.569885         0.791725        -0.603163
 C         3.217620        -0.475817        -0.155633
 O         1.945544        -1.196751        -0.296831
 H        -0.586793         0.533346         0.779770
 H        -0.488629         0.671328        -0.909824
 H        -0.561707        -0.953072        -0.285540
 H         1.594816         0.906082         2.353420
 H         1.690015        -0.978750         2.038296
 H         4.064860        -0.818123         1.864586
 H         2.804835         2.664892         0.573875
 H         4.067949         2.430319        -0.587823
 H         2.591826         0.824968        -1.718180
 H         4.058023        -0.900625        -0.775992
