19
Iteration:   899charge 0 multiplicity 1
 C        -0.077832         0.170873        -0.024099
 C         1.442192        -0.018881         0.111585
 C         1.932558        -0.058114         1.530737
 C         3.464247        -0.171038         1.246800
 O         4.009257         1.125369         1.292373
 C         3.369740         1.944250         0.276349
 C         2.551600         0.902300        -0.568769
 C         3.282894        -0.463813        -0.238094
 O         2.018855        -1.175495        -0.456640
 H        -0.530062        -0.768406         0.438504
 H        -0.372154         0.984761         0.731581
 H        -0.371091         0.408167        -1.000935
 H         1.902673         0.821855         2.122898
 H         1.610941        -0.972555         2.166645
 H         4.108921        -0.793656         1.763162
 H         2.754312         2.652555         0.806709
 H         4.130994         2.452276        -0.296315
 H         2.391667         1.265411        -1.624940
 H         4.044169        -0.854385        -0.891408
