19
Iteration:  3014charge 0 multiplicity 1
 C        -0.077758         0.117570         0.017569
 C         1.412969        -0.039280         0.124261
 C         1.962752         0.130981         1.547113
 C         3.420397        -0.119664         1.309316
 O         4.077801         1.207066         1.268388
 C         3.401989         1.851619         0.170254
 C         2.586811         0.830752        -0.651790
 C         3.197360        -0.482543        -0.292741
 O         2.043331        -1.212292        -0.314340
 H        -0.281124         1.040929        -0.609789
 H        -0.354021        -0.757168        -0.470576
 H        -0.540628         0.161573         1.001315
 H         1.637975         0.998737         2.027906
 H         1.527068        -0.778474         2.070777
 H         4.032097        -0.787242         1.946525
 H         2.607621         2.376368         0.741935
 H         4.148192         2.413144        -0.323874
 H         2.298662         1.018950        -1.753029
 H         3.843431        -1.011162        -0.976284
