19
Iteration:  2472
 C        -0.065697         0.171709        -0.010734
 C         1.410640         0.049597         0.184834
 C         1.949776         0.122470         1.664186
 C         3.486157        -0.090641         1.270688
 O         4.096308         1.169788         1.223992
 C         3.328805         1.884610         0.096912
 C         2.558926         0.768895        -0.602988
 C         3.265910        -0.492828        -0.258472
 O         1.955019        -1.306038        -0.341118
 H        -0.477477         1.043799         0.577918
 H        -0.112540         0.326947        -1.045539
 H        -0.583279        -0.779167         0.156914
 H         1.803907         1.088809         2.045923
 H         1.435484        -0.678355         2.261858
 H         4.143151        -0.743927         1.892566
 H         2.751330         2.680243         0.609859
 H         4.059224         2.407558        -0.568973
 H         2.500738         0.834836        -1.748551
 H         4.149328        -0.907390        -0.832551
