19
Iteration:  3712
 C         0.031729         0.401268        -0.141557
 C         1.422259         0.003940         0.252416
 C         1.992737        -0.169485         1.655646
 C         3.543972        -0.148208         1.208844
 O         4.020311         1.196816         1.189340
 C         3.200929         2.000619         0.243033
 C         2.502148         0.751693        -0.457746
 C         3.245000        -0.489566        -0.322947
 O         2.076584        -1.289452        -0.363212
 H        -0.404445        -0.114122        -0.970428
 H        -0.677897         0.384447         0.671620
 H         0.090467         1.459381        -0.448884
 H         1.645079         0.601174         2.357038
 H         1.572902        -1.140207         2.247157
 H         4.147754        -0.959698         1.760737
 H         2.469526         2.670149         0.695554
 H         3.880607         2.429962        -0.515816
 H         2.180586         0.894308        -1.533110
 H         3.991235        -0.887072        -1.124997
