19
Iteration:  1741
 C        -0.039511         0.396048         0.036703
 C         1.435664         0.023312         0.189852
 C         2.048740        -0.199128         1.674586
 C         3.488565        -0.174511         1.346968
 O         3.902629         1.314630         1.235498
 C         3.281690         1.943225         0.043558
 C         2.647781         0.760967        -0.551546
 C         3.310992        -0.568250        -0.270118
 O         1.966341        -1.270150        -0.423024
 H        -0.155037         1.533025        -0.305167
 H        -0.405006        -0.211732        -0.935868
 H        -0.638134         0.213667         0.904689
 H         1.712457         0.505044         2.333113
 H         1.749533        -1.279530         2.006421
 H         4.214699        -0.687058         2.010368
 H         2.657069         2.801717         0.256214
 H         3.932748         2.383707        -0.667398
 H         2.544327         0.935931        -1.666355
 H         4.099060        -1.023886        -0.965463
