19
Iteration:  1691
 C        -0.136659         0.074103        -0.113035
 C         1.338954         0.018608         0.219383
 C         1.949987         0.106207         1.584469
 C         3.524483        -0.141679         1.217748
 O         4.121344         1.116427         1.201742
 C         3.416389         1.905947         0.271309
 C         2.503322         0.874814        -0.584010
 C         3.257422        -0.505616        -0.290277
 O         2.011855        -1.219129        -0.308884
 H        -0.480785         1.061909        -0.070614
 H        -0.338869        -0.335706        -1.018658
 H        -0.623291        -0.444497         0.786141
 H         1.871701         1.249393         1.904134
 H         1.527769        -0.544373         2.311349
 H         4.109827        -0.758113         1.880094
 H         2.882971         2.769459         0.794126
 H         4.213462         2.465747        -0.436386
 H         2.136974         1.181664        -1.608236
 H         4.031172        -0.934335        -0.888174
