19
Iteration:  3197charge 0 multiplicity 1
 C        -0.070413         0.301458        -0.100431
 C         1.424566         0.055517         0.198132
 C         2.020536         0.011933         1.658044
 C         3.458974        -0.057280         1.339344
 O         4.099448         1.234216         1.157903
 C         3.269267         1.829620         0.114964
 C         2.534428         0.695531        -0.690199
 C         3.275389        -0.545315        -0.210891
 O         2.003459        -1.315630        -0.242691
 H        -0.868385         0.153545         0.694549
 H        -0.289350         1.336380        -0.432448
 H        -0.319896        -0.229037        -1.006383
 H         1.768120         0.981548         2.096577
 H         1.552984        -0.748968         2.313548
 H         4.169857        -0.581187         2.017626
 H         2.532517         2.512690         0.544389
 H         4.007617         2.426069        -0.506360
 H         2.434875         1.050103        -1.785936
 H         4.122196        -1.040291        -0.676861
