19
Iteration:   287charge 0 multiplicity 1
 C        -0.057835         0.385406         0.117273
 C         1.480171         0.050855         0.183245
 C         2.039674        -0.661064         1.481009
 C         3.533091        -0.267113         1.003398
 O         3.904417         1.065996         1.544539
 C         3.160322         1.885519         0.648182
 C         2.453132         1.038695        -0.372731
 C         3.350428        -0.207473        -0.565977
 O         2.127609        -1.028414        -0.847310
 H        -0.340616         0.010106        -0.821981
 H        -0.560861        -0.182760         0.912620
 H        -0.130672         1.538938         0.175233
 H         1.917980        -0.079133         2.341749
 H         1.708743        -1.750030         1.579298
 H         4.304121        -0.949939         1.351816
 H         2.528867         2.453886         1.273545
 H         4.030535         2.557708         0.266805
 H         2.152964         1.572196        -1.176786
 H         4.073635        -0.404904        -1.393135
