19
Iteration:  1653charge 0 multiplicity 1
 C        -0.041575         0.146603        -0.145543
 C         1.416694         0.112679         0.216438
 C         1.925072         0.035273         1.650786
 C         3.509158        -0.143345         1.279095
 O         4.115181         1.149571         1.033015
 C         3.342299         1.912867         0.239100
 C         2.529659         0.819009        -0.578106
 C         3.235207        -0.555742        -0.190925
 O         2.001366        -1.171844        -0.277858
 H        -0.749594         0.851814         0.448281
 H        -0.332616         0.290438        -1.303803
 H        -0.403715        -0.851609        -0.045104
 H         1.633936         0.833741         2.229597
 H         1.586746        -0.846980         2.316182
 H         4.171705        -0.722194         1.965978
 H         2.686353         2.599502         0.825207
 H         3.956582         2.558486        -0.266235
 H         2.260493         0.999703        -1.658225
 H         4.039247        -1.218362        -0.641536
