19
Iteration:  1834
 C        -0.117796         0.006663        -0.113771
 C         1.393028         0.114002         0.228705
 C         1.871313         0.096848         1.648875
 C         3.474626        -0.117872         1.186484
 O         4.183261         1.074096         1.170263
 C         3.417455         1.921969         0.151527
 C         2.505414         0.918117        -0.586447
 C         3.225620        -0.488293        -0.213503
 O         1.987340        -1.202803        -0.270542
 H        -0.714348         0.468143         0.608182
 H        -0.360381         0.398362        -1.099548
 H        -0.253883        -1.144496        -0.056192
 H         1.842066         1.163054         2.144335
 H         1.465706        -0.672518         2.263825
 H         4.109777        -0.895403         1.715779
 H         3.020728         2.754268         0.701448
 H         4.164273         2.383610        -0.452980
 H         2.287502         1.152108        -1.628894
 H         4.179598        -0.901795        -0.606809
