19
Iteration:  2078
 C         0.077752         0.402977        -0.086358
 C         1.458697         0.013360         0.222477
 C         2.032765        -0.013887         1.615167
 C         3.475946        -0.087272         1.249502
 O         3.968535         1.204828         1.178522
 C         3.175610         1.880934         0.173407
 C         2.532416         0.711659        -0.588533
 C         3.299515        -0.575784        -0.244331
 O         2.009178        -1.304784        -0.285718
 H        -0.334703         1.117597         0.800901
 H         0.104420         1.050630        -1.043317
 H        -0.569578        -0.429329        -0.276558
 H         1.754187         0.824450         2.210291
 H         1.707201        -0.990887         2.148868
 H         4.200886        -0.726621         1.665576
 H         2.491637         2.612763         0.702158
 H         3.835151         2.367040        -0.508575
 H         2.110423         0.745944        -1.635266
 H         4.130444        -0.899296        -0.835371
