19
Iteration:  1183charge 0 multiplicity 1
 C        -0.097623        -0.018410        -0.076205
 C         1.390127         0.126002         0.219537
 C         1.871592         0.019011         1.625529
 C         3.484009        -0.133482         1.303103
 O         4.169367         1.213850         1.169466
 C         3.523772         1.917216         0.124793
 C         2.581094         0.888984        -0.575215
 C         3.206103        -0.536727        -0.234483
 O         1.902681        -1.167188        -0.293977
 H        -0.908192         0.466464         0.538031
 H        -0.410995         0.264690        -1.268401
 H        -0.385666        -1.016221        -0.153161
 H         1.744815         0.891705         2.122004
 H         1.305325        -0.746727         2.184011
 H         4.174720        -0.680142         2.107304
 H         3.012178         2.664543         0.732020
 H         4.252543         2.332979        -0.642216
 H         2.391063         1.061786        -1.623533
 H         3.872563        -1.067220        -1.037395
