19
Iteration:  1881
 C        -0.110419         0.180419         0.038801
 C         1.403774         0.048754         0.183873
 C         1.976064        -0.007145         1.590332
 C         3.467383        -0.142981         1.298173
 O         4.038191         1.211745         1.201633
 C         3.355535         1.902722         0.096514
 C         2.577678         0.819260        -0.589418
 C         3.282506        -0.551181        -0.208158
 O         2.001847        -1.182447        -0.371581
 H        -0.643309         1.031852         0.529656
 H        -0.178434         0.288649        -1.101711
 H        -0.463460        -0.751820         0.302554
 H         1.652268         0.828764         2.253879
 H         1.634593        -1.087073         1.950659
 H         4.089710        -0.712941         2.005486
 H         2.957680         2.843626         0.517411
 H         4.160989         2.366922        -0.590034
 H         2.393469         0.929672        -1.609291
 H         4.031023        -1.138276        -0.853462
