19
Iteration:  3767charge 0 multiplicity 1
 C        -0.087816         0.107445        -0.001563
 C         1.397519         0.067445         0.125574
 C         1.955173        -0.021589         1.558219
 C         3.444871        -0.095734         1.289987
 O         4.130211         1.143186         1.174822
 C         3.358177         1.914365         0.242324
 C         2.604739         0.877492        -0.556378
 C         3.285495        -0.518374        -0.204816
 O         1.931109        -1.176707        -0.449899
 H        -0.393900         0.424764        -0.965591
 H        -0.348400        -0.949242         0.194488
 H        -0.513979         0.739753         0.766203
 H         1.722428         0.881517         2.152591
 H         1.525879        -0.835082         2.264430
 H         3.970649        -0.838891         1.889383
 H         2.741045         2.669368         0.756616
 H         4.108160         2.486128        -0.343474
 H         2.272983         1.131585        -1.576449
 H         4.144665        -1.080966        -0.579452
