19
Iteration:     5charge 0 multiplicity 1
 C        -0.066513         0.131684         0.010007
 C         1.429489         0.031171         0.145696
 C         2.101068        -0.642099         1.360911
 C         3.588847        -0.398031         0.934108
 O         4.024700         0.834082         1.504225
 C         3.163793         1.895847         0.996028
 C         2.433288         1.241403        -0.187428
 C         3.266492        -0.003245        -0.585838
 O         2.082741        -0.741581        -0.977363
 H        -0.534876         0.575290         0.875312
 H        -0.380531         0.632301        -0.936658
 H        -0.528446        -0.894055        -0.004495
 H         1.745323        -0.213092         2.298633
 H         1.791142        -1.778073         1.348554
 H         4.214508        -1.315937         1.102332
 H         2.499753         2.182559         1.833035
 H         3.878859         2.662703         0.802981
 H         2.101440         1.813657        -1.042118
 H         4.207102        -0.151253        -1.198095
