19
Iteration:   184charge 0 multiplicity 1
 C        -0.042981         0.029503        -0.066372
 C         1.400345         0.089716         0.185379
 C         2.024817        -0.504800         1.447821
 C         3.540290        -0.313716         0.995223
 O         4.078214         0.906296         1.422777
 C         3.298217         1.929278         0.794107
 C         2.415966         1.172157        -0.215999
 C         3.248847        -0.096217        -0.471647
 O         2.004511        -0.876732        -0.883857
 H        -0.698456         0.505939         0.825326
 H        -0.193600         0.486381        -1.076760
 H        -0.358444        -1.013666        -0.072816
 H         1.830211         0.011767         2.542086
 H         1.801598        -1.566086         1.559038
 H         4.145978        -1.167176         1.321964
 H         2.840706         2.428869         1.638943
 H         4.046979         2.629023         0.361218
 H         2.181961         1.799359        -1.118467
 H         4.158611        -0.187450        -1.033192
