19
Iteration:  1467charge 0 multiplicity 1
 C         0.006255         0.282025         0.000373
 C         1.437736         0.015082         0.190144
 C         1.964647        -0.024548         1.635389
 C         3.468593        -0.178305         1.242474
 O         3.972247         1.221724         1.220850
 C         3.309852         1.860406         0.086670
 C         2.564859         0.853827        -0.605680
 C         3.238089        -0.508296        -0.222158
 O         2.041777        -1.264926        -0.337029
 H        -0.086604         1.305006        -0.250953
 H        -0.417103        -0.409077        -0.767145
 H        -0.449665         0.047434         0.824629
 H         1.654864         0.792323         2.255490
 H         1.482015        -0.890259         2.149998
 H         4.079338        -0.863167         1.821568
 H         2.786848         2.745779         0.488667
 H         4.044518         2.289924        -0.595492
 H         2.434711         1.024023        -1.650308
 H         4.071545        -0.891682        -0.736914
