19
Iteration:  3744
 C        -0.060710         0.233344        -0.084647
 C         1.417154         0.089620         0.161686
 C         2.000916        -0.020612         1.652816
 C         3.514476        -0.169296         1.251913
 O         4.071334         1.179472         1.225108
 C         3.210635         1.904009         0.257771
 C         2.616079         0.813257        -0.578814
 C         3.245263        -0.548869        -0.354383
 O         1.995261        -1.194801        -0.349340
 H        -0.275635        -0.000435        -1.129697
 H        -0.543524        -0.482512         0.601968
 H        -0.346861         1.287121         0.169265
 H         1.823581         0.783749         2.358598
 H         1.595962        -0.978200         2.239823
 H         4.215506        -0.969031         1.671560
 H         2.462781         2.493959         0.816156
 H         3.885823         2.657119        -0.171460
 H         2.394815         0.892536        -1.664501
 H         4.104301        -0.991487        -0.975663
