19
Iteration:  2634
 C         0.006850         0.232737        -0.126593
 C         1.409320        -0.009047         0.223691
 C         1.986499         0.040826         1.636841
 C         3.461393        -0.084735         1.163003
 O         4.069267         1.202906         1.185404
 C         3.306621         1.906749         0.136964
 C         2.523778         0.788059        -0.557253
 C         3.256667        -0.502688        -0.227619
 O         1.982548        -1.300535        -0.219364
 H        -0.370369         1.286352         0.144306
 H        -0.160808        -0.053042        -1.137300
 H        -0.664394        -0.467116         0.412956
 H         1.891007         0.938687         2.217765
 H         1.705660        -0.857227         2.314461
 H         4.109238        -0.751113         1.711325
 H         2.681476         2.705853         0.418945
 H         4.116043         2.365718        -0.509824
 H         2.168871         1.050804        -1.586093
 H         3.987456        -1.059195        -0.820499
