19
Iteration:  3019charge 0 multiplicity 1
 C        -0.076289         0.155329        -0.005669
 C         1.449905         0.025348         0.163701
 C         1.966741         0.069893         1.555126
 C         3.430054        -0.097347         1.329742
 O         4.077444         1.188946         1.279419
 C         3.376875         1.880369         0.155082
 C         2.543068         0.838321        -0.679651
 C         3.217208        -0.491362        -0.296511
 O         2.025661        -1.293335        -0.319699
 H        -0.356540         0.999523        -0.600500
 H        -0.440067        -0.793457        -0.668086
 H        -0.580188         0.297083         1.017501
 H         1.774340         1.146564         2.000069
 H         1.642249        -0.788541         2.087557
 H         4.068343        -0.764022         1.951053
 H         2.555484         2.397086         0.678596
 H         4.186879         2.541736        -0.332631
 H         2.265196         1.143205        -1.627876
 H         4.053474        -1.015222        -0.915045
