19
Iteration:  4789
 C        -0.161678         0.080963        -0.121976
 C         1.388672         0.090928         0.252370
 C         1.915434         0.254781         1.677237
 C         3.473730        -0.017817         1.260184
 O         4.222622         1.208008         0.942332
 C         3.437988         1.825919        -0.042717
 C         2.611505         0.754264        -0.612710
 C         3.229558        -0.630841        -0.047330
 O         1.913876        -1.251251        -0.079119
 H        -0.204003        -0.419345        -1.070015
 H        -0.655770        -0.657410         0.627890
 H        -0.675607         1.036238        -0.214867
 H         1.823618         1.220127         2.159224
 H         1.438900        -0.550372         2.337884
 H         4.069767        -0.465433         1.983383
 H         2.713660         2.526288         0.376040
 H         4.112444         2.251623        -0.735259
 H         2.127399         0.706392        -1.569278
 H         4.035904        -1.188334        -0.479325
