19
Iteration:   488charge 0 multiplicity 1
 C        -0.044036         0.254392        -0.039787
 C         1.473189         0.061762         0.135630
 C         2.054631        -0.403880         1.546673
 C         3.521546        -0.265952         1.129246
 O         3.994857         1.056868         1.331695
 C         3.224946         1.930833         0.572560
 C         2.480576         1.019367        -0.441485
 C         3.339178        -0.309310        -0.388704
 O         1.980702        -1.051890        -0.631806
 H        -0.405547        -0.611363        -0.739910
 H        -0.556035         0.210894         1.002573
 H        -0.366117         1.212595        -0.411746
 H         1.792062         0.249049         2.418481
 H         1.825494        -1.443775         1.749354
 H         4.368475        -0.811180         1.596214
 H         2.510634         2.466760         1.193654
 H         4.026294         2.623470         0.090572
 H         2.160653         1.282644        -1.571391
 H         4.140189        -0.638907        -1.096002
