19
Iteration:   224
 C        -0.095815         0.081434        -0.009809
 C         1.375457         0.085879         0.119194
 C         2.075067        -0.401098         1.434222
 C         3.519909        -0.307559         1.000742
 O         4.105494         0.888895         1.434785
 C         3.226664         1.890626         0.875179
 C         2.435906         1.174773        -0.308092
 C         3.299263        -0.196148        -0.486611
 O         2.050777        -0.920319        -0.840992
 H        -0.636047        -0.647143         0.610943
 H        -0.574741         1.041532         0.118422
 H        -0.292463        -0.199726        -1.030432
 H         1.917425         0.288623         2.229839
 H         1.827086        -1.376296         1.812525
 H         4.186170        -1.025499         1.440764
 H         2.572830         2.374956         1.679679
 H         3.713542         2.705830         0.399535
 H         2.421343         1.632622        -1.392198
 H         4.037480        -0.161849        -1.272202
