19
Iteration:  3332
 C        -0.095471         0.234425        -0.045699
 C         1.363138        -0.042295         0.147837
 C         1.966690         0.196864         1.592511
 C         3.411221        -0.060547         1.222482
 O         4.122684         1.197193         1.188454
 C         3.332288         1.810307         0.159577
 C         2.596111         0.738965        -0.675467
 C         3.284500        -0.566247        -0.228631
 O         2.023968        -1.263989        -0.198876
 H        -0.532860        -0.756980        -0.084440
 H        -0.491524         0.632838         0.854727
 H        -0.236650         0.836014        -0.967944
 H         1.752068         1.215975         1.991028
 H         1.671134        -0.523291         2.420370
 H         3.870293        -0.749665         1.889237
 H         2.531623         2.473158         0.510814
 H         3.924716         2.405562        -0.508708
 H         2.517441         1.008245        -1.663552
 H         4.056599        -1.151478        -0.738447
