19
Iteration:   971
 C         0.027485         0.329537        -0.091058
 C         1.481075         0.009271         0.273005
 C         1.952239        -0.127843         1.623863
 C         3.507777        -0.099449         1.237205
 O         4.007514         1.191357         1.225782
 C         3.273808         1.895396         0.229292
 C         2.532040         0.811792        -0.556299
 C         3.234517        -0.521667        -0.346664
 O         2.018342        -1.250813        -0.382951
 H        -0.110419         0.196743        -1.181237
 H        -0.691906        -0.269277         0.425771
 H        -0.025841         1.489892         0.139655
 H         1.576566         0.741548         2.261443
 H         1.688782        -1.042055         2.067771
 H         4.117820        -0.775884         1.938965
 H         2.374806         2.350710         0.693170
 H         3.984447         2.614036        -0.277956
 H         2.154193         1.084607        -1.587132
 H         4.118886        -0.944444        -0.792307
