19
Iteration:  4637
 C        -0.106067         0.144742         0.035331
 C         1.350400         0.033582         0.153147
 C         1.922109         0.189007         1.627370
 C         3.414423        -0.021289         1.317803
 O         4.183790         1.207942         1.036862
 C         3.347756         1.884163        -0.019727
 C         2.644666         0.672416        -0.628713
 C         3.266643        -0.629640        -0.076567
 O         1.956084        -1.217029        -0.226835
 H        -0.505503        -0.567891         0.636562
 H        -0.394070         1.197546         0.332376
 H        -0.424282        -0.028714        -0.953838
 H         1.671233         1.127559         2.118634
 H         1.524575        -0.706670         2.178746
 H         3.970346        -0.661190         1.927872
 H         2.608194         2.650112         0.308301
 H         4.085177         2.471398        -0.605402
 H         2.743727         0.533003        -1.699050
 H         4.112048        -1.082157        -0.503642
