19
Iteration:  3630
 C        -0.080133         0.094114        -0.092862
 C         1.371107         0.039573         0.143794
 C         1.860618         0.016078         1.631883
 C         3.485737        -0.142484         1.235058
 O         4.192307         1.145547         1.212928
 C         3.419710         1.908272         0.185363
 C         2.480922         0.872752        -0.464573
 C         3.284996        -0.471759        -0.219489
 O         1.979351        -1.190898        -0.391149
 H        -0.350246         0.202179        -1.196120
 H        -0.467635        -0.931966         0.241328
 H        -0.622938         0.884090         0.466649
 H         1.731949         1.075061         1.999837
 H         1.537844        -0.736630         2.277322
 H         3.985189        -0.855533         1.807196
 H         2.902281         2.723717         0.734614
 H         3.991257         2.387356        -0.591099
 H         2.376097         1.144097        -1.506370
 H         4.005363        -0.902840        -0.804833
