19
Iteration:  4907
 C        -0.115747         0.108131        -0.102674
 C         1.377396         0.070036         0.273432
 C         1.977638         0.295703         1.680747
 C         3.463762         0.025610         1.255657
 O         4.126479         1.176329         1.054435
 C         3.437286         1.797476        -0.101574
 C         2.514125         0.712928        -0.667016
 C         3.195694        -0.606091        -0.112048
 O         1.973028        -1.283922        -0.038869
 H        -0.031951        -0.167807        -1.134604
 H        -0.559614        -0.814661         0.441491
 H        -0.727280         1.048727        -0.036379
 H         2.107431         1.282689         2.100328
 H         1.699102        -0.346140         2.518915
 H         4.045266        -0.509806         1.900675
 H         2.938455         2.686388         0.344501
 H         4.173220         2.022944        -0.917977
 H         2.379375         0.782904        -1.772553
 H         3.886358        -1.047351        -0.796279
