19
Iteration:  2798
 C        -0.017853         0.192563        -0.019484
 C         1.413251        -0.038853         0.205461
 C         1.999881         0.068841         1.562051
 C         3.423621        -0.075076         1.308763
 O         4.095094         1.152637         1.143594
 C         3.299291         1.924454         0.180230
 C         2.599754         0.841230        -0.619929
 C         3.221978        -0.514933        -0.272297
 O         2.002679        -1.292336        -0.297670
 H        -0.066064         1.293088        -0.027855
 H        -0.271912        -0.241240        -0.913291
 H        -0.777007        -0.119168         0.709939
 H         1.568879         0.935883         2.017909
 H         1.553156        -0.703444         2.304000
 H         4.007722        -0.688982         1.964643
 H         2.491153         2.495673         0.692523
 H         3.899554         2.710263        -0.357510
 H         2.478962         0.908984        -1.671598
 H         3.983766        -1.077224        -0.787192
