19
Iteration:  2057charge 0 multiplicity 1
 C        -0.087301         0.221297        -0.086731
 C         1.376487         0.011367         0.211729
 C         1.961647        -0.067959         1.682354
 C         3.472995        -0.140619         1.291475
 O         4.119782         1.272728         1.152698
 C         3.289282         1.931650         0.151932
 C         2.684311         0.802662        -0.606244
 C         3.254452        -0.580507        -0.226165
 O         1.948920        -1.237059        -0.350609
 H        -0.589337         0.738486         0.918424
 H        -0.243277         0.926069        -0.978132
 H        -0.508000        -0.737518        -0.339786
 H         1.936026         0.821968         2.316282
 H         1.392335        -0.967726         2.277285
 H         4.178896        -0.463671         1.985673
 H         2.574628         2.699483         0.521142
 H         4.001495         2.484421        -0.520679
 H         2.409895         0.950041        -1.711016
 H         4.034586        -1.095856        -0.718284
