19
Iteration:   780charge 0 multiplicity 1
 C        -0.031051         0.482442        -0.001976
 C         1.437991         0.022534         0.097595
 C         2.068804        -0.223587         1.665107
 C         3.509093        -0.246518         1.272631
 O         3.972921         1.188463         1.283515
 C         3.071810         1.941804         0.354790
 C         2.596682         0.865432        -0.534387
 C         3.275027        -0.485183        -0.375271
 O         2.091142        -1.285655        -0.553492
 H         0.017806         1.404185        -0.712875
 H        -0.542728        -0.501563        -0.378813
 H        -0.454968         0.561862         0.964183
 H         1.882152         0.367564         2.478111
 H         1.692044        -1.257010         1.917303
 H         4.238190        -0.847212         1.715737
 H         2.233583         2.593029         0.839367
 H         3.829083         2.582924        -0.100081
 H         2.488129         1.213078        -1.600978
 H         4.157801        -0.785594        -0.943731
