19
Iteration:  4283charge 0 multiplicity 1
 C        -0.091711         0.077804        -0.098555
 C         1.419108         0.048641         0.245378
 C         2.017800         0.207395         1.573040
 C         3.491499        -0.165211         1.249177
 O         4.159766         1.165847         1.100258
 C         3.329578         1.882613         0.141346
 C         2.519549         0.853881        -0.570675
 C         3.223121        -0.535471        -0.210598
 O         1.945156        -1.272285        -0.202487
 H        -0.465562        -0.967672        -0.409282
 H        -0.685832         0.377955         0.723196
 H        -0.288700         0.859896        -0.874969
 H         1.820049         1.203925         2.026299
 H         1.486628        -0.485167         2.205148
 H         4.145412        -0.753070         1.879356
 H         2.768648         2.606607         0.715647
 H         4.009303         2.358709        -0.564015
 H         2.346992         0.970444        -1.569888
 H         3.986929        -0.845255        -0.836018
