19
Iteration:  4804charge 0 multiplicity 1
 C        -0.045765         0.201591        -0.133838
 C         1.365053         0.052628         0.274598
 C         1.971596         0.178899         1.721535
 C         3.473177         0.007098         1.363758
 O         4.170705         1.238082         0.984175
 C         3.343143         1.872482        -0.104691
 C         2.536168         0.586883        -0.679227
 C         3.222075        -0.611263        -0.133769
 O         1.935388        -1.269702        -0.040350
 H        -0.121017         0.191859        -1.257313
 H        -0.657787        -0.556097         0.224074
 H        -0.402051         1.155395         0.223420
 H         1.727678         1.181246         2.129078
 H         1.608585        -0.635482         2.369216
 H         4.131780        -0.679823         2.107289
 H         2.791260         2.748908         0.329657
 H         4.034947         2.331429        -0.862329
 H         2.497381         0.628512        -1.792487
 H         4.012813        -1.258014        -0.658938
