19
Iteration:  2158
 C        -0.127735         0.082054        -0.033369
 C         1.333207         0.066521         0.221698
 C         1.952306         0.073197         1.577073
 C         3.403372        -0.132898         1.156620
 O         4.066003         1.144594         1.257050
 C         3.462249         1.892475         0.148347
 C         2.576538         0.920207        -0.589913
 C         3.285326        -0.486493        -0.228779
 O         2.006565        -1.257697        -0.310524
 H        -0.521105         1.121898        -0.494207
 H        -0.220224        -0.681336        -0.786197
 H        -0.704167        -0.220568         0.954227
 H         1.859713         1.042590         2.226169
 H         1.660530        -0.800087         2.263931
 H         3.961746        -0.880442         1.753463
 H         2.968089         2.759475         0.592391
 H         4.217835         2.388146        -0.533089
 H         2.592722         1.064146        -1.678960
 H         4.104478        -0.902803        -0.853443
