19
Iteration:  1181charge 0 multiplicity 1
 C        -0.097796        -0.028339        -0.094253
 C         1.385522         0.135234         0.222659
 C         1.871799         0.009588         1.644832
 C         3.489596        -0.138915         1.302948
 O         4.150185         1.216965         1.160068
 C         3.538800         1.934246         0.125347
 C         2.588225         0.868676        -0.568522
 C         3.190659        -0.536583        -0.237995
 O         1.914354        -1.154982        -0.295322
 H        -0.882283         0.484291         0.576835
 H        -0.442242         0.340014        -1.208843
 H        -0.416837        -1.080718        -0.126304
 H         1.767925         0.924613         2.167977
 H         1.400109        -0.730131         2.153227
 H         4.082705        -0.709103         2.075975
 H         3.020497         2.646428         0.674744
 H         4.285085         2.341861        -0.588578
 H         2.408205         1.049326        -1.674763
 H         3.852226        -1.115233        -1.015893
