19
Iteration:  1359charge 0 multiplicity 1
 C        -0.110614         0.024404        -0.111656
 C         1.384073         0.055895         0.246922
 C         1.911576         0.172771         1.655464
 C         3.446230        -0.113471         1.242201
 O         4.240786         1.152050         1.111706
 C         3.393304         1.876782         0.218632
 C         2.575009         0.840556        -0.555767
 C         3.165795        -0.508058        -0.245345
 O         1.979112        -1.233832        -0.308244
 H        -0.821939         0.468097         0.594737
 H        -0.144207         0.697913        -1.090473
 H        -0.517604        -1.009809        -0.226440
 H         1.867397         1.123387         1.961085
 H         1.401749        -0.551520         2.305370
 H         3.926842        -0.902220         1.841535
 H         2.750289         2.548028         0.728768
 H         4.099214         2.524142        -0.437997
 H         2.392942         1.066696        -1.586932
 H         4.054923        -0.782171        -0.743077
