19
Iteration:  2914
 C         0.044936         0.399350        -0.025158
 C         1.490765         0.034987         0.204326
 C         1.987275        -0.059182         1.582819
 C         3.460759        -0.179217         1.334302
 O         4.041860         1.296262         1.139967
 C         3.187228         1.879389         0.102570
 C         2.555518         0.703575        -0.648310
 C         3.305262        -0.583176        -0.209575
 O         1.954984        -1.295584        -0.307393
 H        -0.233395         1.263355         0.672955
 H        -0.121590         0.510231        -1.101946
 H        -0.417552        -0.508104         0.319951
 H         1.657149         0.819303         2.140575
 H         1.604274        -0.877475         2.176159
 H         4.044638        -0.519585         2.136350
 H         2.363445         2.589346         0.610669
 H         3.786103         2.640351        -0.406498
 H         2.454116         0.751271        -1.833297
 H         4.238969        -0.970113        -0.525909
