19
Iteration:  4059charge 0 multiplicity 1
 C        -0.036379         0.277796        -0.047752
 C         1.480542         0.050152         0.179116
 C         1.994356        -0.187189         1.703163
 C         3.537530        -0.153734         1.246860
 O         3.984932         1.230702         1.219914
 C         3.333272         1.967159         0.140164
 C         2.583781         0.797755        -0.618701
 C         3.210252        -0.532074        -0.291600
 O         1.966802        -1.193914        -0.328331
 H        -0.428284         1.253827        -0.210891
 H        -0.425098        -0.287058        -0.879804
 H        -0.597653        -0.129197         0.802681
 H         1.775218         0.694167         2.389538
 H         1.654392        -1.217240         2.048028
 H         4.238461        -0.708831         1.761531
 H         2.606188         2.703398         0.543932
 H         4.131769         2.527958        -0.357745
 H         2.339093         1.056894        -1.645138
 H         3.944770        -1.056153        -0.845598
