19
Iteration:  4253charge 0 multiplicity 1
 C        -0.088146         0.151233        -0.141825
 C         1.368329         0.032875         0.374188
 C         1.985060         0.083976         1.734163
 C         3.482175        -0.120370         1.261964
 O         4.126234         1.213734         1.090495
 C         3.411830         1.864165         0.096726
 C         2.505047         0.839574        -0.582111
 C         3.218613        -0.524383        -0.300972
 O         2.003360        -1.282193        -0.221052
 H        -0.716635        -0.802816        -0.217026
 H        -0.797290         0.867528         0.284681
 H        -0.124814         0.476139        -1.255544
 H         1.757247         1.001689         2.286742
 H         1.632356        -0.750541         2.239297
 H         4.174219        -0.711615         1.872954
 H         2.784715         2.693578         0.541223
 H         4.055735         2.326762        -0.717156
 H         2.214313         0.957508        -1.623608
 H         4.062635        -0.827303        -1.013209
