19
Iteration:  2682
 C        -0.029166         0.012089         0.005605
 C         1.434373         0.100181         0.175345
 C         1.873979         0.152618         1.565509
 C         3.452623        -0.045474         1.286310
 O         4.150399         1.131969         1.116821
 C         3.408443         1.934106         0.188710
 C         2.574660         0.830904        -0.607046
 C         3.242350        -0.574403        -0.267234
 O         1.929635        -1.213834        -0.263787
 H        -0.573595         0.643047         0.636939
 H        -0.341066         0.189689        -1.078162
 H        -0.569070        -0.977274         0.080726
 H         1.593311         1.048575         2.198761
 H         1.386355        -0.645072         1.989029
 H         3.972763        -0.710158         2.023306
 H         2.909738         2.630556         0.771538
 H         4.093428         2.500932        -0.364049
 H         2.465650         0.939580        -1.648983
 H         4.005651        -1.164609        -0.819010
