19
Iteration:  2938charge 0 multiplicity 1
 C        -0.045301         0.301229        -0.139188
 C         1.411773         0.056558         0.229107
 C         2.033706        -0.003668         1.665372
 C         3.495691        -0.132859         1.225635
 O         4.001284         1.226230         1.177271
 C         3.228707         1.899747         0.175081
 C         2.546751         0.765933        -0.608645
 C         3.203367        -0.587778        -0.262887
 O         2.071814        -1.312824        -0.249261
 H         0.068831         1.475017         0.017754
 H        -0.130698         0.048614        -1.169780
 H        -0.782775        -0.135743         0.561327
 H         1.933170         0.847392         2.257725
 H         1.593509        -0.816057         2.308317
 H         4.228378        -0.586934         1.892644
 H         2.682600         2.820206         0.616917
 H         4.017789         2.402304        -0.425173
 H         2.516076         0.808510        -1.761275
 H         3.910260        -1.011974        -0.951103
