19
Iteration:  4143charge 0 multiplicity 1
 C        -0.093194         0.127209        -0.167788
 C         1.433546         0.105084         0.277450
 C         2.018517        -0.048990         1.708146
 C         3.527487        -0.155611         1.305984
 O         4.151146         1.159570         1.108568
 C         3.280164         1.951810         0.131263
 C         2.551774         0.872374        -0.600330
 C         3.206173        -0.550259        -0.214247
 O         1.936042        -1.179917        -0.301813
 H        -0.685566         0.436919         0.757546
 H        -0.058211         0.833959        -0.945764
 H        -0.389756        -0.904999        -0.554653
 H         2.028456         0.780508         2.459820
 H         1.510053        -0.822594         2.127559
 H         4.171677        -0.715514         1.947990
 H         2.512381         2.566624         0.607653
 H         3.958004         2.464085        -0.569109
 H         2.282998         1.058743        -1.542978
 H         3.890351        -0.927226        -0.874908
