19
Iteration:  2276
 C         0.019786         0.391586        -0.001807
 C         1.451667         0.038726         0.249145
 C         1.957791        -0.137685         1.634281
 C         3.441729        -0.132451         1.306973
 O         3.964058         1.284236         1.166656
 C         3.315075         1.873685         0.033839
 C         2.593274         0.717291        -0.638630
 C         3.272960        -0.524261        -0.207228
 O         1.998195        -1.257851        -0.333967
 H        -0.458092         1.083210         0.773101
 H        -0.091016         0.757486        -0.961116
 H        -0.503209        -0.547653         0.107926
 H         1.880251         0.646715         2.346457
 H         1.747811        -1.113018         2.167175
 H         4.048053        -0.591351         2.098966
 H         2.518712         2.675234         0.359940
 H         4.071363         2.258254        -0.638640
 H         2.324471         0.727123        -1.763374
 H         4.142131        -0.976837        -0.727458
