19
Iteration:   536
 C        -0.096702         0.060740        -0.157925
 C         1.396128        -0.013712         0.169949
 C         2.017080        -0.134080         1.534649
 C         3.487016        -0.297995         1.114506
 O         4.196976         0.983141         1.287682
 C         3.262855         1.955386         0.605485
 C         2.475340         1.073785        -0.384325
 C         3.234557        -0.280452        -0.356933
 O         2.000392        -1.055198        -0.587485
 H        -0.173458         0.627391        -1.025478
 H        -0.540615        -0.890913        -0.274363
 H        -0.621994         0.539369         0.743926
 H         1.967201         0.660557         2.235067
 H         1.658954        -1.020157         1.953737
 H         4.154296        -1.074569         1.476527
 H         2.650530         2.507418         1.364442
 H         3.803536         2.568702        -0.013808
 H         2.334908         1.527882        -1.301383
 H         4.003974        -0.593802        -1.066092
