19
Iteration:  1514charge 0 multiplicity 1
 C        -0.089275         0.083196        -0.155318
 C         1.386180         0.076910         0.144862
 C         1.936258         0.071057         1.602679
 C         3.493163        -0.085880         1.241931
 O         4.222045         1.077262         1.093459
 C         3.352891         1.932048         0.310049
 C         2.518361         0.869170        -0.573856
 C         3.222667        -0.447189        -0.219555
 O         1.938943        -1.258504        -0.240434
 H        -0.396283         1.075598        -0.538529
 H        -0.153439        -0.676925        -0.877936
 H        -0.625383        -0.356715         0.646114
 H         1.850647         1.005868         2.116045
 H         1.444535        -0.586348         2.329514
 H         4.066826        -0.836530         1.806311
 H         2.760973         2.542687         0.984852
 H         3.994688         2.750007        -0.211109
 H         2.264449         0.959702        -1.717980
 H         4.083829        -0.908630        -0.789874
