19
Iteration:   831charge 0 multiplicity 1
 C        -0.084449         0.218015        -0.167478
 C         1.350328         0.057958         0.184538
 C         1.996064        -0.140936         1.696334
 C         3.497385        -0.158065         1.162338
 O         4.098875         1.108973         1.290966
 C         3.335449         1.920431         0.336556
 C         2.481430         0.911600        -0.490354
 C         3.243533        -0.417923        -0.365884
 O         2.063913        -1.194372        -0.469649
 H        -0.574779         0.844978         0.635228
 H        -0.366589         0.379434        -1.211449
 H        -0.441478        -0.834740         0.095687
 H         1.890490         0.893323         2.300377
 H         1.504944        -0.953228         2.315041
 H         4.254198        -0.859962         1.696223
 H         2.618319         2.435823         0.937957
 H         4.096561         2.547160        -0.147475
 H         2.190839         1.164192        -1.581714
 H         4.095788        -0.879913        -0.851815
