19
Iteration:  1144charge 0 multiplicity 1
 C        -0.055591         0.251195        -0.044268
 C         1.399823         0.047953         0.190930
 C         1.931191         0.007269         1.593023
 C         3.483991        -0.150159         1.309075
 O         4.034389         1.225970         1.221887
 C         3.374389         1.862286         0.121815
 C         2.519330         0.783314        -0.576533
 C         3.257589        -0.540888        -0.277614
 O         2.055111        -1.254451        -0.325676
 H        -0.308243         0.831252         0.845081
 H        -0.179756         0.741273        -0.933303
 H        -0.553755        -0.800017        -0.079451
 H         1.715518         1.043277         2.115439
 H         1.331972        -0.768712         2.230603
 H         4.154904        -0.690777         1.964599
 H         2.742453         2.774094         0.364825
 H         4.132000         2.294080        -0.506916
 H         2.272779         0.834608        -1.648190
 H         4.039608        -0.875092        -0.881298
