19
Iteration:   344
 C        -0.128158         0.052901        -0.051360
 C         1.385819         0.051855         0.132706
 C         2.033869        -0.356148         1.534234
 C         3.543485        -0.275183         1.096934
 O         4.140915         0.949106         1.410774
 C         3.279924         1.920247         0.666536
 C         2.497095         1.155510        -0.346990
 C         3.287505        -0.240165        -0.469682
 O         2.007657        -0.946698        -0.763436
 H        -0.507587         1.060819        -0.407961
 H        -0.443664        -0.711362        -0.766270
 H        -0.668231        -0.061986         0.862892
 H         1.785152         0.233739         2.382866
 H         1.784326        -1.361983         1.771616
 H         4.014541        -1.185518         1.390448
 H         2.488030         2.226191         1.364390
 H         3.856578         2.858596         0.460977
 H         2.235429         1.684565        -1.342820
 H         3.998497        -0.421937        -1.225079
