19
Iteration:  4508charge 0 multiplicity 1
 C        -0.008362         0.458286        -0.006003
 C         1.452209        -0.048508         0.208260
 C         2.013131         0.081676         1.663262
 C         3.510897        -0.057822         1.252464
 O         3.940307         1.268704         1.164108
 C         3.247917         1.858018        -0.036432
 C         2.572329         0.682684        -0.662058
 C         3.318968        -0.622699        -0.205551
 O         2.029688        -1.398602        -0.150826
 H        -0.349065         1.317154         0.630264
 H        -0.181295         0.711121        -1.153953
 H        -0.646782        -0.419858         0.130940
 H         1.767213         1.036251         1.941567
 H         1.422897        -0.526144         2.340279
 H         4.107647        -0.642741         1.941483
 H         2.529305         2.608845         0.349033
 H         3.921789         2.279160        -0.802657
 H         2.324548         0.655501        -1.705936
 H         4.008230        -1.105839        -0.836716
