19
Iteration:  2326
 C        -0.131289         0.063019        -0.071400
 C         1.425211         0.059516         0.247249
 C         1.954369         0.183342         1.664265
 C         3.463878        -0.083668         1.325008
 O         4.065528         1.075009         1.151575
 C         3.419192         1.873031         0.116208
 C         2.556331         0.814529        -0.541374
 C         3.266088        -0.491724        -0.259991
 O         1.973967        -1.193202        -0.378282
 H        -0.733471         0.589539         0.663630
 H        -0.293743         0.481975        -1.142732
 H        -0.431385        -0.983953         0.042394
 H         1.821553         1.186263         2.105709
 H         1.590548        -0.595163         2.353414
 H         4.142393        -0.763409         1.818676
 H         2.861752         2.649312         0.532015
 H         4.235017         2.243354        -0.548448
 H         2.311656         0.997185        -1.586318
 H         4.123809        -0.868812        -0.764565
