19
Iteration:  1958charge 0 multiplicity 1
 C        -0.005480         0.304105        -0.069508
 C         1.451078         0.067180         0.225803
 C         2.018336        -0.109399         1.621808
 C         3.448973        -0.137512         1.276725
 O         4.066760         1.178484         1.131119
 C         3.176483         1.972862         0.175631
 C         2.552148         0.809215        -0.616904
 C         3.254168        -0.546939        -0.238226
 O         2.039097        -1.268005        -0.294793
 H         0.083956         1.443286        -0.259864
 H        -0.200733        -0.171487        -1.088299
 H        -0.736614         0.044924         0.627480
 H         1.786276         0.689614         2.346695
 H         1.573557        -1.132108         2.094511
 H         4.019555        -0.700053         1.979226
 H         2.441914         2.459793         0.800211
 H         3.962719         2.553351        -0.346648
 H         2.258601         1.024993        -1.639343
 H         4.077540        -1.033639        -0.793880
