19
Iteration:  3129
 C        -0.099941         0.133021         0.011515
 C         1.424520         0.053526         0.169866
 C         1.888145         0.010727         1.560982
 C         3.456009        -0.073130         1.331244
 O         4.102920         1.186732         1.139390
 C         3.393105         1.959213         0.141486
 C         2.610695         0.830100        -0.594301
 C         3.295738        -0.589791        -0.194196
 O         1.963404        -1.232371        -0.344397
 H        -0.592361         0.806755         0.691546
 H        -0.448031         0.380218        -1.083355
 H        -0.505643        -0.886059         0.058165
 H         1.780223         0.981867         2.117723
 H         1.439705        -0.664087         2.208225
 H         4.008200        -0.581770         2.077998
 H         2.762851         2.734009         0.579474
 H         4.189372         2.269467        -0.571158
 H         2.339206         1.047286        -1.639535
 H         4.056078        -1.178447        -0.673822
