19
Iteration:  2959charge 0 multiplicity 1
 C        -0.047273         0.204172        -0.146415
 C         1.435572        -0.019248         0.195940
 C         1.954613        -0.003251         1.641542
 C         3.459341        -0.064949         1.223141
 O         4.110353         1.207686         1.210134
 C         3.342300         1.873035         0.101724
 C         2.542010         0.816323        -0.525419
 C         3.338196        -0.461735        -0.234870
 O         1.908294        -1.290538        -0.250356
 H        -0.246538         1.320892        -0.494553
 H        -0.204441        -0.471849        -0.943698
 H        -0.631296        -0.086330         0.735628
 H         1.714225         0.792438         2.276333
 H         1.595717        -0.913721         2.196577
 H         4.152830        -0.762076         1.667051
 H         2.760103         2.746414         0.575268
 H         4.012974         2.454445        -0.525503
 H         1.919005         1.140273        -1.471219
 H         4.040682        -0.966975        -0.829208
