19
Iteration:  4289
 C        -0.144838         0.093429        -0.054127
 C         1.399691         0.065552         0.196634
 C         1.984904         0.187720         1.616266
 C         3.490638        -0.147835         1.253295
 O         4.159906         1.197762         1.073482
 C         3.346437         1.877048         0.160284
 C         2.553249         0.812276        -0.592344
 C         3.248046        -0.558683        -0.215347
 O         1.957109        -1.259400        -0.227957
 H        -0.292595        -0.890147        -0.400329
 H        -0.809122         0.299368         0.850785
 H        -0.215883         0.804168        -0.855606
 H         1.896981         1.159527         2.103352
 H         1.474270        -0.608485         2.274862
 H         3.991439        -0.683860         2.089002
 H         2.778175         2.628805         0.781660
 H         4.040480         2.497325        -0.446349
 H         2.443932         0.940116        -1.755415
 H         3.991440        -1.053222        -0.940763
