19
Iteration:  3369charge 0 multiplicity 1
 C        -0.002773         0.329362        -0.111850
 C         1.448644        -0.022631         0.231644
 C         2.007572        -0.038615         1.697334
 C         3.438820        -0.099500         1.279099
 O         4.013634         1.260638         1.097446
 C         3.283731         1.837043         0.027122
 C         2.610408         0.729729        -0.587201
 C         3.265751        -0.585088        -0.141798
 O         1.958229        -1.184743        -0.267127
 H        -0.697081        -0.476802         0.132911
 H        -0.325346         1.320313         0.354193
 H        -0.298119         0.329241        -1.149904
 H         1.804348         0.862718         2.430815
 H         1.770761        -1.046270         2.050422
 H         4.075838        -0.692606         1.996032
 H         2.667121         2.662426         0.442080
 H         4.080889         2.356512        -0.537153
 H         2.300994         0.898120        -1.701860
 H         4.150059        -1.167711        -0.428747
