19
Iteration:  2598charge 0 multiplicity 1
 C        -0.023967         0.431796         0.037092
 C         1.449092        -0.014916         0.242107
 C         1.998884        -0.142550         1.656449
 C         3.474981        -0.046331         1.204390
 O         3.884391         1.278244         1.173152
 C         3.249423         1.893377         0.007998
 C         2.660258         0.698408        -0.565513
 C         3.346621        -0.608344        -0.171113
 O         2.000683        -1.254685        -0.368893
 H        -0.219681         1.536914        -0.149055
 H        -0.374365         0.026758        -0.977977
 H        -0.574852         0.027106         0.843433
 H         1.974473         0.714831         2.409698
 H         1.680332        -1.126356         2.159662
 H         4.129089        -0.666051         1.854103
 H         2.445907         2.593246         0.453707
 H         4.076344         2.408800        -0.557957
 H         2.339200         0.798952        -1.674728
 H         4.201635        -1.166042        -0.561738
