19
Iteration:  4893
 C        -0.089059         0.176251        -0.104622
 C         1.390836         0.019017         0.247059
 C         2.027584         0.221466         1.768786
 C         3.461749        -0.014789         1.305547
 O         4.083777         1.319934         1.041389
 C         3.425907         1.773776        -0.141116
 C         2.561406         0.637568        -0.683284
 C         3.237665        -0.582688        -0.152794
 O         1.918670        -1.308059        -0.062702
 H        -0.305438         0.399055        -1.129744
 H        -0.676441        -0.617109         0.214646
 H        -0.412560         1.052605         0.518247
 H         1.728795         1.224587         2.167807
 H         1.561375        -0.511076         2.368894
 H         4.104567        -0.675976         1.967731
 H         2.867560         2.698902        -0.011649
 H         4.235200         2.105120        -0.836986
 H         2.293926         0.586861        -1.755794
 H         4.076768        -1.157683        -0.425176
