19
Iteration:  2324charge 0 multiplicity 1
 C        -0.144996         0.076305        -0.066174
 C         1.421187         0.061139         0.254483
 C         1.972493         0.150274         1.661600
 C         3.445304        -0.085915         1.320433
 O         4.056421         1.089349         1.160952
 C         3.437741         1.869771         0.094438
 C         2.553414         0.809836        -0.549057
 C         3.282200        -0.490763        -0.255004
 O         1.970015        -1.191551        -0.374002
 H        -0.768068         0.587074         0.639794
 H        -0.274826         0.512266        -1.140753
 H        -0.433648        -1.039402         0.019632
 H         1.792071         1.223362         2.111322
 H         1.579944        -0.523377         2.373692
 H         4.181759        -0.753698         1.778050
 H         2.810117         2.639751         0.585181
 H         4.261039         2.250710        -0.524756
 H         2.368857         0.953093        -1.526083
 H         4.156572        -0.840823        -0.829769
