19
Iteration:  1785
 C         0.013268         0.387952        -0.052811
 C         1.480846         0.001503         0.185583
 C         1.992363        -0.037482         1.665957
 C         3.456875        -0.210525         1.232221
 O         4.017040         1.264621         1.166624
 C         3.179658         1.898584         0.175645
 C         2.566574         0.746094        -0.584040
 C         3.257685        -0.534736        -0.251099
 O         2.039327        -1.308649        -0.319747
 H        -0.170489         1.446987         0.404982
 H        -0.246360         0.431621        -1.171314
 H        -0.554252        -0.295165         0.549009
 H         1.946340         0.808837         2.246092
 H         1.590422        -1.004011         2.128938
 H         4.090827        -0.781659         1.902975
 H         2.411733         2.624462         0.541501
 H         3.889524         2.553232        -0.420555
 H         2.387146         0.856107        -1.686066
 H         4.093022        -0.895480        -0.896789
