19
Iteration:  1234charge 0 multiplicity 1
 C         0.029187         0.320224        -0.068199
 C         1.456189         0.047629         0.182861
 C         1.966870        -0.019705         1.581321
 C         3.507660        -0.127588         1.241520
 O         4.083326         1.216106         1.197080
 C         3.174233         1.907766         0.173206
 C         2.573435         0.733193        -0.564862
 C         3.301676        -0.532329        -0.234521
 O         1.963060        -1.301609        -0.313786
 H        -0.165491         1.415701         0.001228
 H        -0.378212        -0.139754        -0.922986
 H        -0.662343        -0.167121         0.685144
 H         1.666561         0.967203         2.198680
 H         1.559861        -0.824186         2.192383
 H         4.103164        -0.812842         1.825299
 H         2.441807         2.639578         0.659831
 H         3.863594         2.483390        -0.471025
 H         2.282740         1.006138        -1.649329
 H         4.146086        -1.091898        -0.782019
