19
Iteration:  1411
 C         0.031143         0.361374        -0.023501
 C         1.489930         0.030384         0.251190
 C         1.945824        -0.122284         1.675406
 C         3.509748        -0.107402         1.282725
 O         3.918487         1.251110         1.141392
 C         3.270439         1.913657         0.054602
 C         2.610248         0.743011        -0.630401
 C         3.336643        -0.609590        -0.217558
 O         1.947000        -1.210216        -0.328717
 H        -0.484623         0.992193         0.700263
 H        -0.165541         0.777915        -1.036498
 H        -0.378086        -0.540394         0.153541
 H         1.701152         0.832933         2.294501
 H         1.758088        -1.127484         2.080710
 H         4.099230        -0.602757         2.111260
 H         2.543693         2.613243         0.560826
 H         4.044880         2.364014        -0.567258
 H         2.273513         0.742128        -1.611717
 H         4.135725        -1.151513        -0.794298
