19
Iteration:  3011charge 0 multiplicity 1
 C        -0.072816         0.109679         0.022998
 C         1.394626        -0.043327         0.113859
 C         1.951500         0.131198         1.550748
 C         3.430761        -0.117666         1.287768
 O         4.079656         1.202871         1.259555
 C         3.394581         1.839940         0.189041
 C         2.606003         0.824267        -0.638447
 C         3.214068        -0.489080        -0.292889
 O         2.035681        -1.186355        -0.314613
 H        -0.269726         0.981368        -0.559986
 H        -0.408434        -0.811222        -0.438095
 H        -0.531397         0.105120         0.972171
 H         1.574140         1.023555         2.113437
 H         1.476429        -0.700938         2.085188
 H         3.959858        -0.771928         1.910986
 H         2.670680         2.504664         0.692302
 H         4.134870         2.430686        -0.386832
 H         2.369006         0.959744        -1.744413
 H         3.866565        -0.980290        -0.953697
