19
Iteration:  4757charge 0 multiplicity 1
 C        -0.134468         0.026170         0.042439
 C         1.411260         0.040688         0.222925
 C         1.919952         0.368432         1.573431
 C         3.437065        -0.028195         1.234731
 O         4.192291         1.176622         1.118643
 C         3.501117         1.785106        -0.001826
 C         2.539172         0.738481        -0.702245
 C         3.243303        -0.560190        -0.175238
 O         1.938312        -1.273591        -0.126284
 H        -0.329764        -0.848543        -0.514570
 H        -0.713239        -0.084113         1.023105
 H        -0.532052         0.843919        -0.489126
 H         1.858185         1.440282         1.642770
 H         1.263226        -0.152706         2.357732
 H         3.872956        -0.651978         2.008390
 H         2.784774         2.582440         0.276460
 H         4.233433         2.296212        -0.593360
 H         2.128312         0.870271        -1.703495
 H         4.049616        -1.129720        -0.606433
