19
Iteration:  2946
 C        -0.006406         0.294632        -0.143329
 C         1.411442         0.029694         0.241454
 C         2.021835        -0.023761         1.623831
 C         3.519105        -0.166483         1.241318
 O         4.030382         1.243801         1.189187
 C         3.313577         1.969965         0.161713
 C         2.481221         0.802940        -0.579116
 C         3.214346        -0.558859        -0.277758
 O         2.014996        -1.347629        -0.227921
 H        -0.249374         1.375836        -0.261257
 H        -0.224557        -0.182673        -1.105056
 H        -0.744384        -0.095092         0.524877
 H         1.897786         0.955971         2.145050
 H         1.635577        -0.869494         2.174858
 H         4.085459        -0.709096         1.962686
 H         2.600103         2.671773         0.646202
 H         4.052399         2.316117        -0.550069
 H         2.377514         0.981165        -1.745373
 H         4.088259        -0.903102        -0.777439
