19
Iteration:  3508
 C        -0.003875         0.194493        -0.108040
 C         1.436400        -0.025230         0.221049
 C         1.958430        -0.074922         1.696839
 C         3.447575        -0.147693         1.218828
 O         4.082770         1.283880         1.259437
 C         3.378949         1.899429         0.101000
 C         2.580738         0.851154        -0.571501
 C         3.233168        -0.554260        -0.271991
 O         1.920666        -1.207743        -0.310535
 H        -0.208744         1.277675        -0.064299
 H        -0.235606        -0.223567        -1.183999
 H        -0.799192        -0.091236         0.633660
 H         1.942274         0.850574         2.345860
 H         1.482945        -0.910286         2.181353
 H         4.118482        -0.782941         1.874805
 H         2.584546         2.616963         0.410753
 H         3.998188         2.373190        -0.665970
 H         2.283312         0.966660        -1.669031
 H         4.109572        -0.947596        -0.867741
