19
Iteration:  1193
 C        -0.109106         0.043818        -0.069791
 C         1.380737         0.064569         0.174077
 C         1.899191         0.080204         1.601840
 C         3.462067        -0.084523         1.278362
 O         4.231908         1.147262         1.206667
 C         3.415419         1.875831         0.146970
 C         2.542553         0.905932        -0.552776
 C         3.248467        -0.509306        -0.225559
 O         1.895950        -1.213496        -0.299812
 H        -0.875450         0.642371         0.511336
 H        -0.123260         0.170856        -1.258545
 H        -0.237639        -1.026059         0.082916
 H         1.694836         0.964965         2.088148
 H         1.426259        -0.703006         2.097312
 H         4.168909        -0.739333         1.920581
 H         2.955119         2.750023         0.498276
 H         4.110440         2.281745        -0.625654
 H         2.294287         1.136761        -1.604718
 H         4.175826        -0.872028        -0.844490
