19
Iteration:  3287charge 0 multiplicity 1
 C        -0.064798         0.075434        -0.154025
 C         1.400440         0.073584         0.238280
 C         1.935218         0.051531         1.717272
 C         3.435448         0.032245         1.292041
 O         4.143346         1.183784         1.157486
 C         3.446809         1.882157        -0.005701
 C         2.588025         0.756812        -0.603169
 C         3.198825        -0.563469        -0.231915
 O         1.927446        -1.181249        -0.204771
 H        -0.514154        -0.906177        -0.387041
 H        -0.598097         0.422445         0.690982
 H        -0.147838         0.905573        -0.903510
 H         1.564385         0.807031         2.351172
 H         1.563328        -0.942280         2.228536
 H         3.935731        -0.627416         1.981743
 H         2.955427         2.763498         0.406823
 H         4.263003         2.187634        -0.681592
 H         2.228077         0.778027        -1.609005
 H         4.046099        -1.060592        -0.745245
