19
Iteration:  4631
 C        -0.141526         0.096690         0.049761
 C         1.363675         0.077391         0.144358
 C         1.885932         0.196274         1.604376
 C         3.403616        -0.064850         1.367841
 O         4.184223         1.227966         1.034452
 C         3.446746         1.869435         0.005892
 C         2.590545         0.671088        -0.659637
 C         3.308485        -0.598815        -0.107395
 O         1.948027        -1.176613        -0.231996
 H        -0.600572        -0.661026         0.829384
 H        -0.498686         1.126520         0.111564
 H        -0.453484        -0.303161        -0.975488
 H         1.812198         1.145576         2.186001
 H         1.494446        -0.607978         2.217254
 H         4.050526        -0.690476         2.110164
 H         2.739490         2.562982         0.502683
 H         4.013970         2.403555        -0.775994
 H         2.550103         0.450638        -1.749555
 H         4.195424        -1.145953        -0.554195
