19
Iteration:  4898charge 0 multiplicity 1
 C        -0.097495         0.167303        -0.100581
 C         1.417191         0.018696         0.257569
 C         2.016021         0.250906         1.771041
 C         3.439449         0.002275         1.267314
 O         4.101636         1.288004         1.042947
 C         3.435542         1.733578        -0.098958
 C         2.535641         0.703225        -0.708519
 C         3.220928        -0.577370        -0.146353
 O         1.927990        -1.302890        -0.053285
 H        -0.298801         0.171562        -1.222138
 H        -0.778121        -0.749015         0.224493
 H        -0.595254         1.051438         0.342055
 H         1.929882         1.278713         2.104926
 H         1.608572        -0.539687         2.490457
 H         4.132774        -0.527723         1.878436
 H         2.852404         2.676263         0.117926
 H         4.237172         2.006571        -0.801828
 H         2.372904         0.495308        -1.772071
 H         4.162437        -1.143807        -0.481575
