19
Iteration:  2274charge 0 multiplicity 1
 C         0.015084         0.391607        -0.002139
 C         1.447460         0.031104         0.260850
 C         1.954515        -0.122082         1.639588
 C         3.443321        -0.150863         1.305319
 O         3.967755         1.282244         1.173513
 C         3.287629         1.881341         0.018728
 C         2.600846         0.709644        -0.627832
 C         3.280410        -0.527017        -0.203471
 O         2.009788        -1.251581        -0.343921
 H        -0.377010         1.111825         0.745289
 H        -0.130410         0.786753        -0.988130
 H        -0.528873        -0.488174         0.114805
 H         1.897994         0.611190         2.352428
 H         1.678332        -1.097570         2.182967
 H         4.126795        -0.618498         2.007550
 H         2.523844         2.673481         0.317789
 H         4.073575         2.306640        -0.634424
 H         2.333341         0.724808        -1.787546
 H         4.114444        -1.002410        -0.670984
