19
Iteration:   163charge 0 multiplicity 1
 C        -0.129993         0.133135         0.010507
 C         1.425618         0.026758         0.135504
 C         2.067284        -0.646593         1.426461
 C         3.573743        -0.373824         1.024408
 O         4.033487         0.936685         1.509261
 C         3.190922         1.958023         0.785308
 C         2.484568         1.157638        -0.286726
 C         3.269969        -0.135206        -0.600131
 O         2.080435        -0.789933        -0.823802
 H        -0.430795         1.189073         0.351925
 H        -0.352235        -0.047713        -1.055693
 H        -0.587265        -0.590773         0.674040
 H         1.839605        -0.014002         2.386474
 H         1.860658        -1.689322         1.614234
 H         4.170364        -1.190113         1.422711
 H         2.618144         2.441186         1.548133
 H         3.927173         2.709154         0.313855
 H         2.252334         1.701282        -1.183603
 H         4.002752        -0.225703        -1.387180
