19
Iteration:  3622
 C        -0.106039         0.076255        -0.124356
 C         1.410557         0.046557         0.198860
 C         1.901856         0.018586         1.630094
 C         3.409043        -0.196997         1.284928
 O         4.246096         1.201554         1.149892
 C         3.393893         1.913779         0.239742
 C         2.517515         0.874009        -0.508107
 C         3.229162        -0.468807        -0.249949
 O         1.976254        -1.203466        -0.371364
 H        -0.190755         0.403485        -1.198920
 H        -0.435313        -0.911148        -0.018952
 H        -0.629635         0.837587         0.481032
 H         1.570787         0.899418         2.242829
 H         1.298281        -0.858804         2.103008
 H         4.169662        -0.671546         1.904323
 H         2.982876         2.802910         0.738485
 H         4.111275         2.255287        -0.503610
 H         2.153628         1.144062        -1.475063
 H         4.051716        -0.967742        -0.778159
