19
Iteration:   750
 C         0.008436         0.286444        -0.008332
 C         1.431404        -0.026284         0.125020
 C         1.975175        -0.272792         1.597790
 C         3.451840        -0.242908         1.217288
 O         3.952808         1.163485         1.358838
 C         3.263970         1.927445         0.306795
 C         2.569539         0.903658        -0.513645
 C         3.271241        -0.383734        -0.390026
 O         2.056127        -1.111818        -0.500008
 H        -0.283603         0.457532        -1.031502
 H        -0.461715        -0.626308         0.344161
 H        -0.118642         1.072713         0.701480
 H         1.694468         0.553284         2.394365
 H         1.596320        -1.258387         1.946241
 H         4.202391        -0.885167         1.605818
 H         2.691477         2.803791         0.602977
 H         4.140499         2.369537        -0.221583
 H         2.323266         1.208387        -1.498666
 H         4.116394        -0.759717        -0.998524
