19
Iteration:  2265
 C        -0.010837         0.392782        -0.019776
 C         1.434854         0.010443         0.220522
 C         1.979666        -0.071078         1.729575
 C         3.484334        -0.175279         1.265238
 O         3.956592         1.252381         1.201761
 C         3.211288         1.907970        -0.032119
 C         2.610879         0.714491        -0.573933
 C         3.323288        -0.593163        -0.179584
 O         2.046385        -1.239595        -0.368018
 H        -0.072713         1.302501         0.683530
 H        -0.209606         0.769935        -0.957534
 H        -0.788750        -0.319384         0.194303
 H         1.744272         0.756024         2.350987
 H         1.347830        -0.952830         2.068983
 H         4.312989        -0.775093         1.616506
 H         2.468855         2.761529         0.319272
 H         3.964124         2.453912        -0.571413
 H         2.330397         0.763386        -1.706560
 H         4.160795        -1.139651        -0.649209
