19
Iteration:  2530
 C        -0.070150         0.135470        -0.148723
 C         1.400225         0.083711         0.235867
 C         1.999147         0.047011         1.701242
 C         3.492484        -0.082064         1.274325
 O         4.160674         1.129531         1.124926
 C         3.300155         1.879700         0.122578
 C         2.510269         0.814655        -0.567066
 C         3.279527        -0.551166        -0.225236
 O         1.939555        -1.187888        -0.283534
 H        -0.655397         0.903559         0.196732
 H        -0.182878         0.251242        -1.241727
 H        -0.527656        -0.800448         0.236989
 H         1.757852         1.090789         2.154847
 H         1.602708        -0.676210         2.349750
 H         4.214970        -0.611540         1.901749
 H         2.713393         2.606453         0.699590
 H         3.889749         2.334602        -0.621038
 H         2.258472         1.059986        -1.542957
 H         4.094833        -1.090809        -0.704673
