19
Iteration:   232charge 0 multiplicity 1
 C        -0.090522         0.134215         0.036106
 C         1.432032         0.087596         0.145361
 C         2.057214        -0.399298         1.430789
 C         3.510335        -0.340200         1.064129
 O         4.100716         0.940331         1.423243
 C         3.162990         1.913980         0.858609
 C         2.483886         1.112041        -0.306932
 C         3.245745        -0.203538        -0.559750
 O         2.097820        -0.932615        -0.850092
 H        -0.491949        -0.771777         0.374101
 H        -0.612820         1.048111         0.382396
 H        -0.321689         0.092135        -1.121817
 H         1.785256         0.161818         2.271173
 H         1.678387        -1.455809         1.582408
 H         4.214936        -1.123167         1.437932
 H         2.469993         2.333321         1.606044
 H         3.927122         2.735973         0.452539
 H         2.232696         1.619828        -1.198032
 H         4.034123        -0.353252        -1.380386
