19
Iteration:  4520charge 0 multiplicity 1
 C         0.009396         0.444643        -0.008798
 C         1.441629         0.062559         0.217054
 C         2.009041         0.138703         1.548208
 C         3.505073        -0.097471         1.270710
 O         3.940143         1.297228         1.165048
 C         3.195266         1.828976        -0.028908
 C         2.559872         0.574423        -0.677410
 C         3.335718        -0.609519        -0.174626
 O         2.017036        -1.454601        -0.168748
 H        -0.188597         1.167997         0.890168
 H        -0.098846         1.114234        -0.985432
 H        -0.754709        -0.301567         0.063826
 H         2.052881         1.062026         2.017427
 H         1.733174        -0.654271         2.242099
 H         4.271609        -0.627374         1.912825
 H         2.369591         2.491696         0.339731
 H         3.893540         2.555220        -0.442554
 H         2.243447         0.721077        -1.657185
 H         4.194673        -1.068405        -0.470190
