19
Iteration:  4410
 C        -0.110094         0.220889        -0.021920
 C         1.357625        -0.008213         0.160207
 C         1.949102         0.157488         1.620688
 C         3.488097        -0.054688         1.281137
 O         4.143659         1.153079         1.084321
 C         3.308537         1.873457         0.084469
 C         2.588374         0.768440        -0.623949
 C         3.298435        -0.556853        -0.162740
 O         1.983250        -1.270563        -0.242309
 H        -0.406475         0.647771        -0.976159
 H        -0.455834        -0.876048         0.033101
 H        -0.538815         0.655110         0.848808
 H         1.679532         1.086021         2.033817
 H         1.781165        -0.605916         2.384878
 H         4.132104        -0.632108         1.901995
 H         2.535204         2.510631         0.557830
 H         3.967199         2.539260        -0.459616
 H         2.359378         0.935390        -1.678211
 H         4.065392        -1.126241        -0.570527
