19
Iteration:   363
 C        -0.114600         0.053421        -0.114728
 C         1.397648         0.072604         0.134566
 C         2.007384        -0.246168         1.484893
 C         3.502243        -0.369360         1.020901
 O         4.160690         0.957719         1.285084
 C         3.241892         1.937200         0.834819
 C         2.465558         1.123932        -0.315240
 C         3.228926        -0.232511        -0.452734
 O         2.064051        -0.985177        -0.678558
 H        -0.582472         1.016510         0.062938
 H        -0.185598        -0.399398        -1.118697
 H        -0.533362        -0.711084         0.714742
 H         1.785936         0.558115         2.203043
 H         1.565610        -1.291565         1.897462
 H         4.142448        -1.145427         1.439662
 H         2.896656         2.567518         1.605445
 H         3.912721         2.694136         0.264348
 H         2.298114         1.636397        -1.156130
 H         4.065506        -0.488680        -1.132576
