19
Iteration:   949charge 0 multiplicity 1
 C        -0.039037         0.441374        -0.165468
 C         1.487779         0.032799         0.146404
 C         2.080417        -0.228453         1.660247
 C         3.529417        -0.194083         1.249362
 O         4.010953         1.249175         1.197672
 C         3.114911         1.964433         0.281364
 C         2.530106         0.762356        -0.538673
 C         3.315846        -0.546028        -0.241260
 O         1.957645        -1.253299        -0.362943
 H        -0.468497        -0.132536        -0.996591
 H        -0.604733         0.317174         0.726553
 H         0.046698         1.597371        -0.463787
 H         1.946683         0.529232         2.528063
 H         1.770143        -1.188987         1.963580
 H         4.388661        -0.846317         1.703499
 H         2.312906         2.555819         0.825329
 H         3.816024         2.518995        -0.412131
 H         2.554224         0.982047        -1.635955
 H         4.209004        -0.994973        -0.691480
