19
Iteration:  3504charge 0 multiplicity 1
 C        -0.029907         0.193767        -0.136721
 C         1.462549        -0.018356         0.215959
 C         1.979645        -0.043277         1.670104
 C         3.469172        -0.165137         1.237960
 O         4.065022         1.244073         1.249739
 C         3.367109         1.933135         0.092837
 C         2.546835         0.815418        -0.543325
 C         3.206938        -0.540992        -0.289209
 O         1.939868        -1.198042        -0.277687
 H        -0.203956         1.259026        -0.023507
 H        -0.109373        -0.138250        -1.102803
 H        -0.765477        -0.252817         0.560762
 H         1.892039         0.827981         2.204458
 H         1.493500        -0.833416         2.281921
 H         4.081190        -0.844248         1.836958
 H         2.681947         2.700269         0.468089
 H         4.105151         2.364086        -0.650366
 H         2.351200         0.967699        -1.564171
 H         4.072566        -0.819416        -0.923718
