19
Iteration:  1080charge 0 multiplicity 1
 C         0.027253         0.338120        -0.095299
 C         1.459044        -0.030338         0.209380
 C         2.005734        -0.084904         1.614665
 C         3.472368        -0.148790         1.238835
 O         4.017338         1.225971         1.190144
 C         3.272715         1.983557         0.232505
 C         2.535821         0.809792        -0.602106
 C         3.259560        -0.559998        -0.231469
 O         1.976379        -1.339699        -0.328781
 H        -0.117758         1.343599        -0.557073
 H        -0.289732        -0.193002        -0.940282
 H        -0.862229         0.343637         0.676864
 H         1.921582         0.875536         2.178108
 H         1.639233        -0.868326         2.121461
 H         4.187293        -0.643163         1.866362
 H         2.595817         2.692378         0.677609
 H         3.989044         2.650569        -0.237472
 H         2.246104         0.952361        -1.670218
 H         4.107454        -0.970181        -0.687608
