19
Iteration:  3160charge 0 multiplicity 1
 C        -0.114514         0.120002        -0.137457
 C         1.356746         0.134868         0.235266
 C         1.946218         0.028633         1.654514
 C         3.477926        -0.050413         1.329678
 O         4.123352         1.168876         1.150794
 C         3.389780         1.848309         0.118260
 C         2.554215         0.842951        -0.607143
 C         3.220516        -0.546866        -0.271362
 O         2.001457        -1.239607        -0.248914
 H        -0.810378         0.212287         0.634616
 H        -0.182064         0.836138        -0.989241
 H        -0.200063        -0.931304        -0.474692
 H         2.066347         0.970484         2.239664
 H         1.511813        -0.688570         2.273475
 H         4.081009        -0.698742         1.925202
 H         2.794750         2.738958         0.475762
 H         4.210239         2.206231        -0.502061
 H         2.169575         1.032467        -1.524399
 H         4.097100        -1.011695        -0.740423
