19
Iteration:  4476
 C        -0.090104         0.215378        -0.072545
 C         1.434998         0.040432         0.260135
 C         1.970563         0.005079         1.700999
 C         3.469598         0.009475         1.320051
 O         4.124020         1.229798         1.098110
 C         3.409850         1.882488        -0.092509
 C         2.549428         0.763899        -0.620730
 C         3.234035        -0.587816        -0.098218
 O         1.912972        -1.236485        -0.226646
 H        -0.737558         1.135298        -0.245358
 H        -0.178838        -0.492110        -1.012988
 H        -0.556191        -0.518246         0.571204
 H         1.590353         0.761376         2.297700
 H         1.639887        -0.981175         2.055579
 H         4.076657        -0.595938         1.997182
 H         2.916343         2.789619         0.289550
 H         4.181539         2.303363        -0.748939
 H         2.403417         0.749251        -1.676028
 H         4.039271        -0.923274        -0.625998
