19
Iteration:  4182
 C        -0.014241         0.369702         0.048610
 C         1.433375        -0.017206         0.157219
 C         2.014756        -0.011332         1.610917
 C         3.506873        -0.198614         1.312662
 O         4.019307         1.311826         1.209037
 C         3.217051         1.860026         0.082677
 C         2.511391         0.749046        -0.614244
 C         3.297859        -0.530438        -0.274795
 O         2.039878        -1.341403        -0.300598
 H        -0.609096         0.608089         0.910458
 H         0.057440         1.283845        -0.643210
 H        -0.706851        -0.137091        -0.568137
 H         1.888686         0.839898         2.284235
 H         1.443743        -1.014145         1.889304
 H         4.211942        -0.778685         1.992831
 H         2.672223         2.714711         0.501376
 H         3.961809         2.356700        -0.538356
 H         2.102759         0.982124        -1.713306
 H         4.134650        -0.979956        -0.916781
