19
Iteration:  4713charge 0 multiplicity 1
 C         0.011954         0.316319        -0.051043
 C         1.406163         0.060059         0.259029
 C         1.924594         0.028527         1.663421
 C         3.495390         0.024830         1.331937
 O         4.058755         1.325006         1.069155
 C         3.307455         1.806538        -0.160201
 C         2.627918         0.631438        -0.613127
 C         3.264625        -0.659895        -0.131637
 O         1.919992        -1.276418        -0.145837
 H        -0.431098        -0.549259        -0.365107
 H        -0.509496         0.668738         0.893257
 H        -0.010577         1.063216        -0.802329
 H         1.659878         0.834650         2.333130
 H         1.811088        -0.994737         2.164231
 H         4.181764        -0.528828         1.896585
 H         2.647656         2.615124         0.302714
 H         3.851360         2.273097        -0.940619
 H         2.338041         0.598072        -1.637882
 H         4.049048        -1.186045        -0.587811
