19
Iteration:  4688charge 0 multiplicity 1
 C         0.028214         0.473999        -0.158011
 C         1.408288         0.020844         0.255535
 C         2.071290         0.008785         1.766424
 C         3.548369        -0.059779         1.314711
 O         3.906957         1.298182         1.055515
 C         3.272454         1.851664        -0.107084
 C         2.512551         0.672774        -0.680023
 C         3.298729        -0.655804        -0.122704
 O         1.966666        -1.402048        -0.090254
 H        -0.621784        -0.442738        -0.403335
 H        -0.460449         1.050131         0.632961
 H         0.188864         1.149208        -1.098597
 H         2.037824         1.021620         2.300406
 H         1.749711        -0.855292         2.363385
 H         4.360812        -0.545143         1.837450
 H         2.645586         2.643792         0.374369
 H         3.824688         2.504111        -0.820319
 H         2.126055         0.664023        -1.740064
 H         4.192020        -1.222954        -0.503977
