19
Iteration:  1556charge 0 multiplicity 1
 C        -0.078960         0.252278        -0.064227
 C         1.439887        -0.009148         0.194356
 C         2.031590        -0.015411         1.620594
 C         3.472588        -0.159489         1.289995
 O         4.032800         1.256840         1.234433
 C         3.381338         1.958670         0.098571
 C         2.561334         0.747893        -0.558033
 C         3.282498        -0.546856        -0.231908
 O         1.917733        -1.259587        -0.344705
 H        -0.417319         1.227657         0.376618
 H        -0.307529         0.266019        -1.159388
 H        -0.631250        -0.519731         0.316977
 H         1.804308         0.801925         2.262219
 H         1.536452        -0.937476         2.136444
 H         4.168924        -0.684794         1.947141
 H         2.724657         2.806478         0.506826
 H         4.105652         2.505881        -0.595214
 H         2.355170         0.825821        -1.702550
 H         4.074701        -0.922629        -0.907049
