19
Iteration:   367charge 0 multiplicity 1
 C        -0.089230         0.054169        -0.110957
 C         1.388037         0.076733         0.171920
 C         1.976643        -0.234554         1.507664
 C         3.512639        -0.360069         1.019963
 O         4.158395         0.957708         1.277694
 C         3.248298         1.930019         0.790620
 C         2.494826         1.101060        -0.258896
 C         3.227828        -0.219380        -0.458236
 O         2.076853        -1.010508        -0.694224
 H        -0.687506         0.996645         0.181837
 H        -0.159742        -0.269427        -1.155516
 H        -0.490964        -0.695784         0.491691
 H         1.692445         0.528045         2.210434
 H         1.635932        -1.122813         1.875304
 H         3.997306        -1.299369         1.344160
 H         2.750856         2.529859         1.606555
 H         3.844531         2.730757         0.291415
 H         2.300398         1.680526        -1.303429
 H         3.958149        -0.345232        -1.225639
