19
Iteration:  2678charge 0 multiplicity 1
 C        -0.016521         0.013128        -0.031992
 C         1.436740         0.093183         0.168590
 C         1.911701         0.183502         1.572604
 C         3.440328        -0.052971         1.265014
 O         4.183627         1.144854         1.110050
 C         3.386271         1.904090         0.206583
 C         2.561360         0.813078        -0.597637
 C         3.232946        -0.560034        -0.229323
 O         1.902347        -1.206160        -0.282069
 H        -0.688432         0.668043         0.632840
 H        -0.350679         0.186222        -1.010217
 H        -0.500852        -1.003544         0.155522
 H         1.441677         0.962982         2.137081
 H         1.473636        -0.755547         2.166387
 H         3.899609        -0.783388         1.890961
 H         2.961917         2.678339         0.929962
 H         4.052530         2.532886        -0.494560
 H         2.453247         0.877800        -1.688389
 H         4.159092        -1.043687        -0.610975
