19
Iteration:  2822charge 0 multiplicity 1
 C        -0.152760         0.079151        -0.154401
 C         1.365652         0.146989         0.242571
 C         1.894904         0.115071         1.662591
 C         3.545671        -0.148113         1.231273
 O         4.190569         1.159579         1.140100
 C         3.349045         1.885230         0.136202
 C         2.554666         0.841819        -0.566125
 C         3.271756        -0.480154        -0.165942
 O         1.993673        -1.243286        -0.309918
 H        -0.557794         0.928010         0.225106
 H        -0.489723        -0.260369        -1.148384
 H        -0.608482        -0.644995         0.585211
 H         1.496546         0.899947         2.385372
 H         1.585826        -0.799891         2.228964
 H         4.104288        -0.944925         1.819907
 H         2.762399         2.756487         0.645071
 H         4.003020         2.391428        -0.654508
 H         2.493815         0.815280        -1.584480
 H         4.028312        -1.013626        -0.813812
