19
Iteration:  2687charge 0 multiplicity 1
 C        -0.070567         0.019336         0.002909
 C         1.417273         0.093149         0.164650
 C         1.868065         0.138286         1.582087
 C         3.450091        -0.066760         1.301146
 O         4.129274         1.128385         1.132522
 C         3.420272         1.934187         0.163442
 C         2.602958         0.847860        -0.611654
 C         3.242884        -0.579635        -0.280912
 O         1.968503        -1.219831        -0.249579
 H        -0.554766         0.777339         0.718861
 H        -0.289408         0.281640        -1.025759
 H        -0.437319        -0.987126         0.127718
 H         1.800863         1.071013         2.141829
 H         1.276283        -0.770346         2.025920
 H         4.018827        -0.590334         2.063719
 H         2.646110         2.706943         0.682493
 H         4.241897         2.506530        -0.406121
 H         2.415528         1.064380        -1.739864
 H         3.856757        -1.171507        -0.969262
