19
Iteration:  1422charge 0 multiplicity 1
 C         0.033660         0.362689         0.003849
 C         1.463735         0.052491         0.153021
 C         2.048241        -0.141785         1.678525
 C         3.445163        -0.115186         1.280825
 O         3.911476         1.301146         1.202230
 C         3.261145         1.908895         0.032340
 C         2.573765         0.710549        -0.593581
 C         3.305628        -0.643388        -0.181148
 O         1.978403        -1.224321        -0.360835
 H         0.009713         1.197452         0.669580
 H        -0.297929         0.682175        -1.014903
 H        -0.609413        -0.366462         0.255538
 H         1.794446         0.574714         2.532438
 H         1.576548        -1.075877         1.996363
 H         4.246150        -0.599244         1.904528
 H         2.609561         2.805998         0.238635
 H         4.050606         2.349342        -0.582740
 H         2.362226         0.759917        -1.613919
 H         4.145380        -1.105767        -0.728046
