19
Iteration:  3998charge 0 multiplicity 1
 C        -0.029816         0.274713         0.026817
 C         1.369221        -0.007210         0.126228
 C         2.044954        -0.012363         1.578424
 C         3.481524        -0.116732         1.231694
 O         4.063443         1.154738         1.133596
 C         3.209009         1.936749         0.225708
 C         2.648130         0.799374        -0.605750
 C         3.286735        -0.554812        -0.209634
 O         1.967263        -1.197075        -0.319369
 H        -0.133554         1.365358         0.281122
 H        -0.281775         0.106892        -1.100965
 H        -0.713884        -0.362114         0.585476
 H         1.580671         0.592803         2.289515
 H         1.816125        -1.017434         1.930191
 H         4.065021        -0.762991         1.959649
 H         2.366084         2.453262         0.728568
 H         3.860152         2.747234        -0.152501
 H         2.357786         0.823942        -1.697551
 H         4.184013        -1.043079        -0.730682
