19
Iteration:   531charge 0 multiplicity 1
 C        -0.109951         0.064768        -0.155155
 C         1.405419        -0.014832         0.157942
 C         2.051269        -0.126943         1.575864
 C         3.508727        -0.287565         1.125110
 O         4.179217         0.992290         1.273696
 C         3.284395         1.920699         0.647960
 C         2.441215         1.041319        -0.398758
 C         3.241470        -0.267283        -0.377287
 O         1.978662        -1.063373        -0.588248
 H        -0.165562         0.559055        -1.225277
 H        -0.577524        -0.986084        -0.257580
 H        -0.506597         0.786762         0.557803
 H         1.785822         0.727104         2.295585
 H         1.650765        -1.143615         2.019067
 H         4.149753        -1.155813         1.380052
 H         2.705086         2.513631         1.345457
 H         3.853423         2.740020        -0.027989
 H         2.264389         1.702667        -1.385983
 H         4.153257        -0.507992        -0.973476
