19
Iteration:  1790
 C         0.009237         0.352972        -0.063146
 C         1.448414         0.054746         0.177858
 C         1.993378        -0.058108         1.674372
 C         3.459814        -0.152460         1.212916
 O         4.049793         1.250970         1.171413
 C         3.223967         1.910390         0.184250
 C         2.552197         0.736784        -0.588603
 C         3.276303        -0.552444        -0.212395
 O         2.021054        -1.305696        -0.349334
 H        -0.176645         1.281848         0.391344
 H        -0.264743         0.439647        -1.075781
 H        -0.666106        -0.445458         0.445373
 H         1.915211         0.908836         2.341406
 H         1.513995        -0.863024         2.165035
 H         4.164984        -0.790562         1.770955
 H         2.400656         2.493370         0.631645
 H         3.742158         2.623763        -0.440185
 H         2.308049         0.822186        -1.663540
 H         4.079380        -1.038365        -0.738254
