19
Iteration:  2452charge 0 multiplicity 1
 C         0.029296         0.307958         0.017644
 C         1.463841        -0.020580         0.178586
 C         1.961526        -0.051622         1.641295
 C         3.391301        -0.106219         1.289265
 O         3.964090         1.267646         1.165501
 C         3.339784         1.907721         0.073304
 C         2.617176         0.765838        -0.612465
 C         3.254707        -0.613899        -0.215125
 O         2.001815        -1.227437        -0.347500
 H        -0.061209         1.216911         0.528569
 H        -0.420211         0.258211        -0.939013
 H        -0.492148        -0.469279         0.627145
 H         1.817768         0.888528         2.210081
 H         1.621614        -0.953264         2.055771
 H         4.102171        -0.566586         1.993337
 H         2.695381         2.649046         0.360281
 H         4.040746         2.416764        -0.550182
 H         2.197902         0.978448        -1.590263
 H         4.056778        -1.269884        -0.651108
