19
Iteration:  1722
 C        -0.003524         0.234656        -0.007348
 C         1.405138         0.054060         0.229266
 C         1.962631        -0.124871         1.620666
 C         3.477460        -0.087596         1.233188
 O         3.980267         1.234295         1.228421
 C         3.370697         1.859358         0.124625
 C         2.576136         0.798747        -0.634818
 C         3.279892        -0.548985        -0.204311
 O         1.990297        -1.150959        -0.397040
 H        -0.278436         1.273986        -0.227299
 H        -0.490786        -0.402105        -0.684507
 H        -0.538471        -0.040143         0.952830
 H         1.641234         0.589493         2.426609
 H         1.639044        -1.097919         1.999959
 H         4.159350        -0.669805         1.828497
 H         2.770000         2.724306         0.476342
 H         4.184286         2.314104        -0.440520
 H         2.122663         0.845026        -1.729055
 H         4.147238        -1.027001        -0.636718
