19
Iteration:  3062charge 0 multiplicity 1
 C         0.011381         0.350953        -0.156427
 C         1.400727         0.022814         0.247484
 C         2.045809        -0.147856         1.742590
 C         3.493836        -0.050109         1.301483
 O         4.072681         1.212164         1.163245
 C         3.191729         1.922613         0.120724
 C         2.553277         0.777451        -0.650097
 C         3.303130        -0.512893        -0.228556
 O         1.945667        -1.286432        -0.332556
 H         0.047637         1.306934        -0.651397
 H        -0.220978        -0.571463        -0.871721
 H        -0.660895         0.348666         0.764448
 H         1.674073         0.622582         2.465008
 H         1.622034        -1.054243         2.102002
 H         4.134038        -0.586682         2.022419
 H         2.542666         2.544754         0.758065
 H         3.968711         2.384433        -0.495015
 H         2.116857         0.904157        -1.560665
 H         4.190245        -1.003839        -0.745898
