19
Iteration:  1530charge 0 multiplicity 1
 C        -0.045630         0.113505        -0.154735
 C         1.412808         0.033942         0.254146
 C         1.951568         0.175581         1.652675
 C         3.387969        -0.162246         1.224212
 O         4.174890         1.092705         1.137673
 C         3.312267         1.879963         0.226179
 C         2.507159         0.839426        -0.528656
 C         3.257372        -0.493748        -0.321847
 O         2.051430        -1.219223        -0.275173
 H        -0.383576         1.161740        -0.223947
 H        -0.274410        -0.314778        -1.184330
 H        -0.810297        -0.316579         0.698231
 H         1.742828         1.133129         2.248565
 H         1.614767        -0.705755         2.217525
 H         3.902549        -0.839026         1.907910
 H         2.633233         2.598193         0.774607
 H         3.910203         2.388697        -0.448762
 H         2.288670         1.163442        -1.473781
 H         4.067526        -0.823823        -0.933136
