19
Iteration:  4287
 C        -0.130956         0.085954        -0.067154
 C         1.409299         0.059710         0.215543
 C         1.995367         0.196842         1.600412
 C         3.490480        -0.161640         1.250435
 O         4.158620         1.192592         1.079815
 C         3.338655         1.873511         0.154366
 C         2.542820         0.830671        -0.583328
 C         3.238089        -0.548602        -0.208318
 O         1.951825        -1.265980        -0.219718
 H        -0.346121        -0.946329        -0.398684
 H        -0.788495         0.321751         0.827240
 H        -0.220303         0.866732        -0.894726
 H         1.863694         1.162435         2.078142
 H         1.488180        -0.533377         2.215777
 H         4.049987        -0.708187         2.054920
 H         2.790138         2.623343         0.790193
 H         4.057558         2.464810        -0.489793
 H         2.419760         0.948519        -1.718601
 H         4.021969        -1.002265        -0.962343
