19
Iteration:  1657
 C        -0.062030         0.126558        -0.172333
 C         1.411623         0.116776         0.234418
 C         1.924756         0.053824         1.653936
 C         3.525278        -0.141696         1.329120
 O         4.146925         1.114349         1.041211
 C         3.333732         1.935680         0.244078
 C         2.524523         0.817255        -0.603168
 C         3.233784        -0.525610        -0.210199
 O         1.974068        -1.200311        -0.299718
 H        -0.678262         0.827574         0.399279
 H        -0.226270         0.183581        -1.202949
 H        -0.364494        -0.908180         0.103568
 H         1.663274         1.015431         2.240370
 H         1.565570        -0.784089         2.295131
 H         4.155287        -0.654329         2.065610
 H         2.645144         2.514691         0.951427
 H         4.046464         2.637482        -0.346538
 H         2.239013         1.087642        -1.717205
 H         4.028909        -1.074985        -0.761141
