19
Iteration:  4967charge 0 multiplicity 1
 C        -0.151980         0.254282        -0.020657
 C         1.410652         0.009481         0.151002
 C         1.948930         0.204198         1.683437
 C         3.469143        -0.045621         1.296040
 O         4.125965         1.302459         1.010130
 C         3.312027         1.805921        -0.064027
 C         2.565185         0.624250        -0.662106
 C         3.345815        -0.624897        -0.065202
 O         1.982562        -1.304908        -0.112193
 H        -0.566755        -0.663539        -0.543055
 H        -0.623530         0.363087         0.927368
 H        -0.364409         1.171970        -0.625040
 H         1.999500         1.238192         2.125896
 H         1.449831        -0.526388         2.327545
 H         4.113219        -0.660050         2.044058
 H         2.724626         2.627400         0.389035
 H         3.911432         2.240770        -0.859691
 H         2.435657         0.749000        -1.726202
 H         4.096347        -1.172196        -0.640482
