19
Iteration:  2592
 C        -0.025916         0.414579         0.026466
 C         1.469083         0.023980         0.220383
 C         2.030611        -0.154975         1.650568
 C         3.430936        -0.107226         1.221414
 O         3.882245         1.292680         1.182925
 C         3.268425         1.902180        -0.004462
 C         2.647282         0.709851        -0.574119
 C         3.310928        -0.596441        -0.142592
 O         2.001845        -1.271078        -0.382881
 H         0.099371         1.531649         0.111896
 H        -0.453686        -0.043686        -0.812808
 H        -0.629659         0.090683         0.938102
 H         1.986731         0.704500         2.256977
 H         1.646272        -1.081117         2.109379
 H         4.099864        -0.596507         1.910091
 H         2.543081         2.562149         0.415410
 H         3.826072         2.516475        -0.735554
 H         2.567223         0.684463        -1.648943
 H         4.293745        -0.957140        -0.514630
