19
Iteration:  2241
 C         0.049232         0.408756        -0.048643
 C         1.421830        -0.015198         0.216559
 C         2.028404        -0.016151         1.562004
 C         3.451680        -0.111107         1.294605
 O         4.000044         1.268122         1.181839
 C         3.201176         1.843401         0.186846
 C         2.580561         0.719814        -0.618515
 C         3.274958        -0.544310        -0.273779
 O         2.003067        -1.344966        -0.300861
 H        -0.005632         1.485362         0.153059
 H        -0.336664         0.200755        -1.027664
 H        -0.568113        -0.096482         0.615323
 H         1.908915         0.792823         2.177279
 H         1.636735        -0.899739         2.174505
 H         4.162342        -0.649931         1.876368
 H         2.430355         2.627996         0.571026
 H         3.929659         2.495637        -0.323091
 H         2.350351         0.957558        -1.757860
 H         4.053511        -1.051101        -0.777343
