19
Iteration:  4296
 C        -0.145530         0.125037         0.008271
 C         1.360417         0.087162         0.145716
 C         1.937930         0.112440         1.686953
 C         3.472274        -0.040412         1.268450
 O         4.176961         1.178105         1.074705
 C         3.362145         1.915552         0.174375
 C         2.606866         0.729728        -0.642298
 C         3.260403        -0.597155        -0.237875
 O         1.976926        -1.220161        -0.262146
 H        -0.315205        -0.908068        -0.492665
 H        -0.782357         0.259830         0.890978
 H        -0.496809         0.803205        -0.899233
 H         1.956641         1.090530         2.187423
 H         1.616963        -0.645869         2.307281
 H         3.949240        -0.665629         2.051408
 H         2.572455         2.569203         0.612313
 H         3.985401         2.607750        -0.452698
 H         2.469556         0.907639        -1.695581
 H         4.039421        -1.269708        -0.748659
