19
Iteration:  1778charge 0 multiplicity 1
 C         0.050128         0.450680        -0.032256
 C         1.462075        -0.051413         0.198157
 C         2.005516        -0.068814         1.607120
 C         3.485218        -0.218803         1.282840
 O         3.939650         1.237048         1.176078
 C         3.151657         1.899505         0.140290
 C         2.580725         0.780851        -0.587995
 C         3.294953        -0.535698        -0.328173
 O         2.050395        -1.298552        -0.271123
 H        -0.024549         1.478416         0.263618
 H        -0.234451         0.299768        -1.004373
 H        -0.717032        -0.167105         0.663813
 H         1.777500         0.868089         2.297160
 H         1.710492        -0.938391         2.097907
 H         4.099328        -0.735873         2.008936
 H         2.488033         2.647318         0.551663
 H         3.921663         2.313307        -0.418729
 H         2.400664         0.983646        -1.721658
 H         4.079941        -0.785455        -0.971478
