19
Iteration:  3493
 C        -0.030238         0.204365        -0.157768
 C         1.374925         0.069673         0.250894
 C         2.017261         0.050994         1.638369
 C         3.511220        -0.150239         1.248783
 O         4.017229         1.125965         1.199368
 C         3.339294         1.923299         0.137598
 C         2.497221         0.816747        -0.532118
 C         3.242427        -0.484843        -0.272985
 O         2.011524        -1.265934        -0.257887
 H        -0.453353         1.209072         0.007648
 H        -0.101883         0.052459        -1.177754
 H        -0.602084        -0.603330         0.287577
 H         1.852863         0.976552         2.058210
 H         1.627809        -0.771568         2.265710
 H         4.165990        -0.814793         1.806424
 H         2.951153         2.836150         0.576783
 H         4.200879         2.235733        -0.508282
 H         2.213722         0.944048        -1.539957
 H         3.963440        -0.924792        -0.979996
