19
Iteration:  4798charge 0 multiplicity 1
 C        -0.088008         0.162461        -0.135645
 C         1.357601         0.063908         0.301964
 C         1.916226         0.190147         1.669687
 C         3.487847        -0.031055         1.368975
 O         4.202192         1.240768         0.949178
 C         3.371549         1.866959        -0.057363
 C         2.588807         0.615780        -0.689352
 C         3.239171        -0.615086        -0.109776
 O         1.932588        -1.234324        -0.053343
 H        -0.087439        -0.067936        -1.191721
 H        -0.743940        -0.649565         0.404056
 H        -0.669921         1.148242         0.048691
 H         1.801391         1.166762         2.168565
 H         1.586674        -0.558476         2.393034
 H         4.102436        -0.556354         1.962228
 H         2.884301         2.752285         0.370121
 H         4.050055         2.291947        -0.813061
 H         2.177285         0.614846        -1.718304
 H         3.975091        -1.218546        -0.528328
