19
Iteration:  4622
 C        -0.164855         0.037932         0.007274
 C         1.431612         0.125114         0.172472
 C         1.912827         0.204130         1.618290
 C         3.428894        -0.063525         1.332780
 O         4.180840         1.198496         1.070476
 C         3.457073         1.818114        -0.005591
 C         2.604984         0.743173        -0.675873
 C         3.254775        -0.542205        -0.110795
 O         1.941797        -1.238916        -0.225139
 H        -0.571972        -0.409688         1.012257
 H        -0.722061         0.950328         0.000581
 H        -0.470565        -0.604110        -0.921615
 H         1.750954         1.263764         2.107904
 H         1.364427        -0.520205         2.240635
 H         3.955587        -0.481059         2.224646
 H         2.879700         2.682528         0.474169
 H         4.214209         2.237633        -0.708276
 H         2.202204         0.888687        -1.748589
 H         4.045177        -1.170352        -0.666495
