19
Iteration:  2821charge 0 multiplicity 1
 C        -0.157153         0.083562        -0.154758
 C         1.381714         0.145340         0.233398
 C         1.886991         0.114541         1.657618
 C         3.544089        -0.147794         1.229846
 O         4.188327         1.162409         1.133282
 C         3.342784         1.882519         0.148266
 C         2.546654         0.832149        -0.568121
 C         3.281674        -0.484071        -0.162198
 O         1.996644        -1.242263        -0.308315
 H        -0.567812         0.968106         0.217183
 H        -0.487640        -0.256236        -1.098690
 H        -0.590279        -0.612412         0.611700
 H         1.531059         0.879801         2.376379
 H         1.586087        -0.811388         2.258986
 H         4.072622        -0.929694         1.821662
 H         2.796605         2.737117         0.633835
 H         3.986912         2.395082        -0.637821
 H         2.478563         0.863446        -1.586465
 H         4.026493        -1.003811        -0.800315
