19
Iteration:   818charge 0 multiplicity 1
 C        -0.038967         0.276481        -0.114784
 C         1.454503         0.018688         0.157806
 C         2.028582        -0.147504         1.610785
 C         3.500500        -0.198715         1.202531
 O         4.081655         1.143920         1.245585
 C         3.198159         1.945446         0.425974
 C         2.530199         0.894327        -0.521761
 C         3.249398        -0.467575        -0.323252
 O         2.015829        -1.230060        -0.461562
 H        -0.302740         1.275581         0.147542
 H        -0.231855         0.255822        -1.143133
 H        -0.744282        -0.435671         0.453571
 H         1.758382         0.784466         2.343681
 H         1.723259        -1.080172         2.071678
 H         4.179041        -0.958523         1.763075
 H         2.574205         2.633247         1.017052
 H         3.776144         2.624831        -0.257254
 H         2.293359         1.195796        -1.546162
 H         4.056367        -0.713242        -1.038186
