19
Iteration:  4362
 C        -0.008932         0.353222        -0.059015
 C         1.402406        -0.026795         0.265495
 C         2.074915        -0.061710         1.711779
 C         3.467418        -0.095326         1.245590
 O         3.922770         1.282828         1.195754
 C         3.316664         1.852012         0.010066
 C         2.498167         0.728710        -0.635725
 C         3.248205        -0.553096        -0.285575
 O         2.004939        -1.299091        -0.197206
 H        -0.122764        -0.189043        -1.024411
 H        -0.831524         0.236669         0.680069
 H         0.180071         1.485131        -0.261203
 H         2.089539         0.840819         2.342267
 H         1.622568        -0.835764         2.232697
 H         4.397933        -0.490031         1.715953
 H         2.853990         2.796675         0.260762
 H         4.196684         2.197278        -0.607098
 H         2.316570         0.731068        -1.746567
 H         4.162516        -0.820664        -0.985115
