19
Iteration:    51charge 0 multiplicity 1
 C        -0.076389        -0.056221        -0.071692
 C         1.400440         0.088980         0.150207
 C         2.045007        -0.498158         1.413171
 C         3.533862        -0.415279         0.962049
 O         4.123814         0.766778         1.519003
 C         3.269126         1.941222         0.938963
 C         2.383341         1.296496        -0.187131
 C         3.260236        -0.038160        -0.532105
 O         2.051035        -0.743059        -0.956775
 H        -0.514443        -1.151894         0.133596
 H        -0.711657         0.687370         0.442553
 H        -0.301172         0.127652        -1.132229
 H         1.880051         0.103003         2.410666
 H         1.633627        -1.545329         1.511025
 H         4.214379        -1.263641         1.163021
 H         2.801866         2.379130         1.830909
 H         4.071240         2.603738         0.440007
 H         1.957479         1.978138        -1.020549
 H         4.094541        -0.052831        -1.260632
