19
Iteration:   808
 C         0.026357         0.307720        -0.048550
 C         1.414162        -0.028976         0.176091
 C         2.006917        -0.149358         1.515226
 C         3.521934        -0.191530         1.212389
 O         4.053996         1.143154         1.214807
 C         3.126829         1.933593         0.385065
 C         2.559554         0.891347        -0.471685
 C         3.327008        -0.457487        -0.333572
 O         1.980238        -1.190927        -0.447070
 H        -0.035949         1.398621        -0.022655
 H        -0.086087        -0.048423        -1.038404
 H        -0.882492        -0.067411         0.551015
 H         1.791160         0.590073         2.474895
 H         1.659147        -1.146242         1.820567
 H         4.170255        -0.951421         1.861236
 H         2.314101         2.353644         0.949787
 H         3.836494         2.658249        -0.078113
 H         2.412191         1.244014        -1.526279
 H         4.187507        -0.869240        -0.893864
