19
Iteration:   892
 C        -0.135852         0.115088         0.011377
 C         1.377497         0.001300         0.110517
 C         1.946643        -0.083335         1.587305
 C         3.445615        -0.145462         1.259829
 O         4.031430         1.109892         1.299196
 C         3.403440         1.929993         0.287728
 C         2.589575         0.899481        -0.587734
 C         3.281675        -0.448174        -0.316746
 O         2.045448        -1.112339        -0.460256
 H        -0.648474        -0.727168         0.540151
 H        -0.590981         1.056655         0.462771
 H        -0.428023         0.129783        -1.106525
 H         1.837714         0.848750         2.154111
 H         1.623444        -0.900554         2.151682
 H         4.031108        -0.911168         1.858498
 H         2.794784         2.785117         0.698325
 H         4.189314         2.464025        -0.274774
 H         2.606839         1.001728        -1.636976
 H         4.157493        -0.870813        -0.893983
