19
Iteration:   840charge 0 multiplicity 1
 C        -0.114125         0.105579        -0.118152
 C         1.369124         0.034945         0.227525
 C         1.945920        -0.072386         1.641674
 C         3.497843        -0.190404         1.199738
 O         4.091384         1.088582         1.283067
 C         3.373524         1.904270         0.298136
 C         2.539875         0.938806        -0.493724
 C         3.264777        -0.388131        -0.356651
 O         2.028208        -1.138396        -0.456401
 H        -0.766891         0.557662         0.570484
 H        -0.204077         0.630737        -1.015972
 H        -0.587426        -0.905158        -0.279887
 H         1.929273         0.846521         2.415502
 H         1.583779        -0.953684         2.175358
 H         4.073143        -1.078574         1.665502
 H         2.702856         2.666221         0.781097
 H         4.124688         2.489777        -0.307838
 H         2.247422         1.316940        -1.486009
 H         4.169599        -0.702318        -0.921485
