19
Iteration:  1287charge 0 multiplicity 1
 C         0.076846         0.373225        -0.006560
 C         1.408865        -0.002487         0.213691
 C         2.018773        -0.099093         1.628664
 C         3.490187        -0.160836         1.282228
 O         3.894781         1.255345         1.194862
 C         3.269096         1.831111         0.091729
 C         2.509046         0.776424        -0.576271
 C         3.279603        -0.522937        -0.272840
 O         2.060456        -1.270145        -0.333506
 H         0.116830         1.460970        -0.061919
 H        -0.215065        -0.040429        -0.900890
 H        -0.689863         0.238171         0.827554
 H         1.775961         0.878072         2.325463
 H         1.575838        -1.047605         2.087906
 H         4.165556        -0.632969         1.940456
 H         2.699597         2.804735         0.402396
 H         4.001230         2.356987        -0.527474
 H         2.314122         0.929755        -1.695477
 H         4.046032        -0.999614        -0.900206
