19
Iteration:    15
 C        -0.165338         0.016272        -0.011684
 C         1.393533         0.051041         0.192067
 C         2.061126        -0.595282         1.412045
 C         3.531326        -0.421185         0.971745
 O         4.118387         0.797834         1.502326
 C         3.256953         1.965007         0.996821
 C         2.444398         1.301201        -0.227063
 C         3.267977        -0.003754        -0.564675
 O         2.084732        -0.745065        -1.031326
 H        -0.710962         0.030085         0.866111
 H        -0.452467         0.909994        -0.664436
 H        -0.310433        -0.975875        -0.603246
 H         1.724685        -0.183106         2.334271
 H         1.757142        -1.782483         1.400477
 H         4.260640        -1.274842         1.119385
 H         2.584524         2.298287         1.800077
 H         3.853168         2.741266         0.802186
 H         2.073307         1.869029        -1.038864
 H         4.203204        -0.161627        -1.190991
