19
Iteration:  1226
 C        -0.055979         0.276608        -0.040796
 C         1.430170         0.004045         0.217015
 C         1.926981         0.028018         1.658293
 C         3.509659        -0.151332         1.268178
 O         4.068220         1.155620         1.145150
 C         3.238191         1.928465         0.170693
 C         2.571925         0.802304        -0.600060
 C         3.318222        -0.498104        -0.265258
 O         2.005710        -1.296510        -0.317589
 H        -0.371673         1.360121        -0.017367
 H        -0.241962        -0.050911        -1.185555
 H        -0.669091        -0.330209         0.586645
 H         1.834452         1.010396         1.977310
 H         1.454504        -0.612953         2.324876
 H         4.085951        -0.906357         1.913562
 H         2.483441         2.534541         0.560174
 H         4.047508         2.484422        -0.338073
 H         2.385227         1.152212        -1.615985
 H         4.247280        -1.010552        -0.736453
