19
Iteration:  4474charge 0 multiplicity 1
 C        -0.106049         0.207835        -0.075865
 C         1.426708         0.045481         0.248759
 C         1.956714         0.004803         1.704610
 C         3.470514        -0.003568         1.329597
 O         4.138559         1.231618         1.094058
 C         3.404388         1.895670        -0.080902
 C         2.550422         0.755223        -0.616770
 C         3.221200        -0.593182        -0.105491
 O         1.918641        -1.219958        -0.225354
 H        -0.766206         1.044762        -0.277918
 H        -0.135214        -0.551516        -0.991511
 H        -0.592861        -0.512915         0.659650
 H         1.637351         0.799178         2.294989
 H         1.672926        -0.965755         2.090061
 H         4.096828        -0.552783         1.971750
 H         2.957902         2.810981         0.284073
 H         4.256876         2.247027        -0.725239
 H         2.483250         0.749561        -1.735377
 H         4.092336        -0.932925        -0.705252
