19
Iteration:   312
 C        -0.027381         0.237982         0.070640
 C         1.485835         0.011260         0.130922
 C         2.079861        -0.516638         1.453779
 C         3.543740        -0.355000         1.049192
 O         3.902131         0.967988         1.448949
 C         3.198166         1.993154         0.573020
 C         2.452567         1.136583        -0.310356
 C         3.338607        -0.259749        -0.436924
 O         2.046366        -0.953420        -0.793879
 H        -0.273445         0.754813        -0.907923
 H        -0.549056        -0.704310         0.229188
 H        -0.116683         0.892056         0.879685
 H         1.829146         0.051006         2.328227
 H         1.862616        -1.524841         1.521488
 H         4.215378        -1.061267         1.509928
 H         2.591591         2.531013         1.395678
 H         3.972871         2.699148         0.284694
 H         2.112460         1.725281        -1.303320
 H         4.026195        -0.502813        -1.186755
