19
Iteration:  4640
 C        -0.084643         0.180697         0.015715
 C         1.373994         0.020770         0.160847
 C         1.939879         0.181556         1.641051
 C         3.419143         0.007290         1.282372
 O         4.174146         1.198032         1.041046
 C         3.300330         1.887123        -0.031217
 C         2.674567         0.681062        -0.622233
 C         3.232993        -0.628698        -0.058354
 O         1.957808        -1.256122        -0.222424
 H        -0.556299        -0.613341         0.663676
 H        -0.369843         1.184503         0.446515
 H        -0.436698         0.112492        -0.996690
 H         1.597308         1.084308         2.071288
 H         1.549245        -0.689445         2.163041
 H         4.019557        -0.687139         1.991325
 H         2.585435         2.647932         0.256315
 H         4.108101         2.448160        -0.534391
 H         2.742948         0.651172        -1.690436
 H         4.082761        -1.104869        -0.522684
