19
Iteration:  4627
 C        -0.162908         0.057122         0.037661
 C         1.396840         0.102597         0.150172
 C         1.886367         0.204584         1.605855
 C         3.414089        -0.079186         1.371155
 O         4.181669         1.226033         1.042868
 C         3.466895         1.851526         0.008740
 C         2.586802         0.689862        -0.677321
 C         3.307391        -0.574544        -0.112882
 O         1.943525        -1.191770        -0.232012
 H        -0.570330        -0.507164         0.816809
 H        -0.612441         1.094775         0.066856
 H        -0.437154        -0.388448        -0.862961
 H         1.823853         1.111100         2.141906
 H         1.434030        -0.572307         2.254120
 H         3.990065        -0.574104         2.141604
 H         2.833783         2.545103         0.547988
 H         4.050100         2.329325        -0.787884
 H         2.374775         0.584405        -1.728602
 H         4.075866        -1.127330        -0.561404
