19
Iteration:  2307
 C        -0.108052         0.147054        -0.059586
 C         1.362329         0.035207         0.211745
 C         1.944814        -0.012777         1.662746
 C         3.483043        -0.180669         1.226390
 O         4.082401         1.294456         1.249740
 C         3.443401         1.897400         0.068875
 C         2.613433         0.808557        -0.614792
 C         3.213929        -0.521470        -0.231685
 O         1.970944        -1.207765        -0.295346
 H        -0.655315         0.675237         0.770804
 H        -0.303612         0.661492        -0.961110
 H        -0.545024        -0.800282        -0.143544
 H         1.990877         0.888331         2.179840
 H         1.548721        -0.902508         2.306696
 H         3.991136        -0.811654         1.934651
 H         2.864309         2.825111         0.292377
 H         4.204699         2.218658        -0.691884
 H         2.301683         0.889301        -1.776540
 H         4.021331        -1.043222        -0.735083
