19
Iteration:  3189charge 0 multiplicity 1
 C         0.005701         0.241187        -0.160961
 C         1.389434        -0.001782         0.179361
 C         1.977143         0.069235         1.666901
 C         3.463790        -0.047786         1.272620
 O         4.088730         1.202601         1.160333
 C         3.290079         1.865541         0.111423
 C         2.566858         0.751231        -0.591417
 C         3.199693        -0.513659        -0.204035
 O         1.977666        -1.304279        -0.229241
 H        -0.547571         0.173200         0.830548
 H        -0.021085         1.241728        -0.485079
 H        -0.433359        -0.477802        -0.905642
 H         2.101881         1.005418         2.200505
 H         1.584404        -0.781346         2.394389
 H         4.169794        -0.774412         1.774602
 H         2.641380         2.676903         0.460484
 H         4.060982         2.384504        -0.445232
 H         2.264076         0.806162        -1.690882
 H         4.108511        -0.935812        -0.709109
