19
Iteration:  1010
 C        -0.145613         0.051924         0.007837
 C         1.322989         0.117780         0.183560
 C         1.942260         0.030949         1.567311
 C         3.412574        -0.097269         1.288488
 O         4.125205         1.163718         1.264542
 C         3.466502         1.865983         0.220741
 C         2.630589         0.847225        -0.587962
 C         3.292118        -0.498064        -0.283338
 O         1.975996        -1.167079        -0.425232
 H        -0.544489         0.493862        -0.914966
 H        -0.395285        -1.030762        -0.324885
 H        -0.744760         0.477322         0.792008
 H         1.650183         0.932652         2.081977
 H         1.411649        -0.900991         2.088739
 H         4.155831        -0.811236         1.750186
 H         2.910720         2.693622         0.703277
 H         4.171069         2.380137        -0.420490
 H         2.259106         1.129386        -1.547535
 H         4.160242        -1.064604        -0.789480
