19
Iteration:    37
 C        -0.105280        -0.069950        -0.095127
 C         1.384843         0.072991         0.091418
 C         2.018198        -0.513270         1.353072
 C         3.544478        -0.373677         0.942065
 O         4.108612         0.830794         1.468882
 C         3.311148         1.829457         0.952238
 C         2.443379         1.206300        -0.079854
 C         3.256386         0.004599        -0.520836
 O         2.024573        -0.655772        -0.886560
 H        -0.340329        -0.767734         0.656455
 H        -0.725036         0.864698         0.087226
 H        -0.290446        -0.553566        -1.128661
 H         1.735128         0.060224         2.219778
 H         1.701300        -1.666601         1.555382
 H         4.180871        -1.278272         1.184296
 H         2.807808         2.427152         1.721626
 H         3.876592         2.504694         0.471481
 H         2.291036         1.847562        -0.926170
 H         4.103127        -0.038968        -1.278726
