19
Iteration:  1292
 C         0.007554         0.344437         0.004119
 C         1.441350        -0.030953         0.221845
 C         2.030538        -0.069628         1.635025
 C         3.476749        -0.114340         1.315316
 O         3.898459         1.231251         1.200384
 C         3.288854         1.841280         0.127035
 C         2.547014         0.820524        -0.626422
 C         3.258330        -0.508657        -0.295312
 O         2.041086        -1.291625        -0.334011
 H         0.118617         1.454599        -0.065557
 H        -0.280743         0.021000        -1.083304
 H        -0.634982         0.110120         0.811612
 H         1.749831         0.774619         2.150516
 H         1.671376        -0.951419         2.096291
 H         4.285788        -0.594496         1.964010
 H         2.775716         2.707603         0.472120
 H         4.101034         2.142316        -0.629232
 H         2.246384         1.011407        -1.624929
 H         4.030473        -1.044005        -0.923197
