19
Iteration:  1267charge 0 multiplicity 1
 C        -0.024390         0.479639        -0.066030
 C         1.457406         0.032521         0.254017
 C         2.024973        -0.206353         1.704509
 C         3.488384        -0.121074         1.276716
 O         3.949435         1.242457         1.200834
 C         3.136471         1.929200         0.073050
 C         2.697858         0.738670        -0.646520
 C         3.340531        -0.553747        -0.242894
 O         1.990067        -1.313428        -0.328371
 H        -0.083747         1.569885        -0.255832
 H        -0.378340        -0.018577        -0.910645
 H        -0.595061         0.345872         0.859114
 H         1.672689         0.703630         2.392812
 H         1.690591        -1.173884         2.046135
 H         4.340922        -0.618352         1.731273
 H         2.404945         2.676742         0.540000
 H         3.813310         2.507702        -0.594671
 H         2.136231         0.738119        -1.620547
 H         4.218451        -1.124143        -0.773283
