19
Iteration:   159charge 0 multiplicity 1
 C        -0.107158         0.161040         0.029524
 C         1.407144         0.040807         0.166299
 C         2.066474        -0.648106         1.430727
 C         3.582184        -0.348306         1.012850
 O         4.004698         0.934804         1.515512
 C         3.194039         1.944340         0.775740
 C         2.486374         1.140340        -0.286912
 C         3.299682        -0.120859        -0.613085
 O         2.086775        -0.829421        -0.866308
 H        -0.465955         1.226196         0.292717
 H        -0.424728        -0.134143        -0.986116
 H        -0.675444        -0.426027         0.774193
 H         1.880762        -0.063290         2.397966
 H         1.846452        -1.721597         1.641674
 H         4.205110        -1.120201         1.468507
 H         2.577078         2.411975         1.599167
 H         3.856831         2.674008         0.480873
 H         2.228822         1.769569        -1.269642
 H         4.072544        -0.264485        -1.375038
