19
Iteration:  3474
 C        -0.125690         0.160101        -0.154552
 C         1.429874         0.085749         0.206314
 C         1.938006         0.092608         1.703978
 C         3.409573        -0.122401         1.246807
 O         4.188465         1.172663         1.155652
 C         3.345954         1.862360         0.155438
 C         2.505789         0.813660        -0.580628
 C         3.216192        -0.544071        -0.268560
 O         2.037657        -1.262471        -0.266423
 H        -0.507505         0.928234         0.508506
 H        -0.189329         0.543465        -1.220317
 H        -0.495295        -0.898381        -0.126698
 H         1.877132         0.990237         2.335060
 H         1.525427        -0.710746         2.283449
 H         3.948128        -0.943581         1.829293
 H         2.693204         2.544912         0.732056
 H         4.018180         2.494840        -0.437222
 H         2.364947         1.265076        -1.560304
 H         4.220193        -0.893747        -0.670673
