19
Iteration:  1211
 C        -0.096891         0.123766        -0.108066
 C         1.381722         0.015790         0.203360
 C         1.986421         0.127023         1.665511
 C         3.393392        -0.127013         1.238898
 O         4.093832         1.118401         1.149086
 C         3.392502         1.879401         0.190832
 C         2.552457         0.835182        -0.587295
 C         3.218265        -0.500681        -0.233926
 O         2.073399        -1.213002        -0.322515
 H        -0.310991         1.088722         0.370334
 H        -0.391813         0.074316        -1.081449
 H        -0.821834        -0.658137         0.342911
 H         1.850514         1.155705         2.279180
 H         1.595769        -0.665378         2.390415
 H         4.005188        -0.709034         1.852669
 H         2.812913         2.623074         0.845823
 H         4.045292         2.460417        -0.472386
 H         2.296120         0.844813        -1.707164
 H         4.019771        -0.883199        -0.873752
