19
Iteration:  2954charge 0 multiplicity 1
 C        -0.010495         0.271533        -0.141158
 C         1.422639        -0.015560         0.204907
 C         1.988798        -0.018357         1.618454
 C         3.491205        -0.106292         1.232908
 O         4.076345         1.224288         1.209535
 C         3.353367         1.918701         0.120951
 C         2.500671         0.827491        -0.541245
 C         3.308704        -0.490206        -0.243453
 O         1.929764        -1.338287        -0.231823
 H        -0.356905         1.192536        -0.456869
 H        -0.250116        -0.368226        -1.060765
 H        -0.688872        -0.115427         0.635334
 H         1.768480         0.931744         2.251988
 H         1.598386        -0.884945         2.121295
 H         4.087370        -0.874904         1.773411
 H         2.707196         2.687192         0.507942
 H         3.944694         2.547240        -0.593099
 H         1.971223         1.093336        -1.416006
 H         4.171802        -0.972576        -0.810227
