19
Iteration:   969
 C         0.036527         0.349926        -0.089696
 C         1.471242         0.015836         0.278758
 C         1.955265        -0.136891         1.622449
 C         3.520360        -0.095266         1.229698
 O         4.007558         1.197760         1.226337
 C         3.260234         1.897668         0.232049
 C         2.543504         0.815286        -0.553824
 C         3.227402        -0.535176        -0.336054
 O         2.019083        -1.257620        -0.385734
 H        -0.128317         0.114018        -1.166063
 H        -0.729129        -0.284190         0.405184
 H         0.006898         1.532280         0.070834
 H         1.590196         0.682303         2.254017
 H         1.701359        -1.047515         2.006369
 H         4.099076        -0.766344         2.002223
 H         2.376661         2.350879         0.687546
 H         3.926076         2.618931        -0.272700
 H         2.151442         1.039207        -1.548851
 H         4.113955        -0.958207        -0.882306
