19
Iteration:  2782charge 0 multiplicity 1
 C         0.034311         0.324481        -0.036786
 C         1.429211        -0.034991         0.156879
 C         1.935746         0.055048         1.722804
 C         3.503793        -0.111855         1.175236
 O         4.031354         1.265857         1.214501
 C         3.205802         1.902939         0.190006
 C         2.593577         0.715438        -0.640839
 C         3.299891        -0.600105        -0.249515
 O         1.981737        -1.315372        -0.333286
 H        -0.091297         1.444421        -0.156371
 H        -0.481666        -0.126695        -0.994714
 H        -0.535059        -0.034405         0.836920
 H         1.952777         1.061090         2.224653
 H         1.547691        -0.774364         2.248184
 H         4.235031        -0.727179         1.780097
 H         2.468385         2.533923         0.658923
 H         3.917127         2.441541        -0.395891
 H         2.250535         0.971665        -1.718417
 H         4.205196        -0.952782        -0.790141
