19
Iteration:  2947charge 0 multiplicity 1
 C        -0.000812         0.290018        -0.144004
 C         1.411349         0.023250         0.238396
 C         2.018842        -0.020290         1.622055
 C         3.519472        -0.162618         1.242374
 O         4.034951         1.242717         1.191848
 C         3.324126         1.968412         0.156522
 C         2.478894         0.807471        -0.571249
 C         3.227051        -0.551440        -0.276386
 O         2.003012        -1.350435        -0.226850
 H        -0.300752         1.390867        -0.304821
 H        -0.233216        -0.192801        -1.076914
 H        -0.746047        -0.099018         0.532750
 H         1.891472         0.929271         2.126330
 H         1.627106        -0.889534         2.165488
 H         4.072206        -0.741851         1.948440
 H         2.585545         2.674739         0.639458
 H         4.038925         2.342597        -0.569619
 H         2.322813         1.006489        -1.743967
 H         4.094800        -0.897137        -0.757109
