19
Iteration:  3268
 C        -0.120961         0.249856        -0.109460
 C         1.406501         0.036664         0.188818
 C         1.985844         0.027450         1.644198
 C         3.474373        -0.181817         1.291605
 O         4.030948         1.305753         1.151555
 C         3.432897         1.861840        -0.004580
 C         2.551530         0.814079        -0.605474
 C         3.254546        -0.538181        -0.125393
 O         1.974741        -1.317247        -0.205639
 H        -0.453511        -0.724964        -0.309987
 H        -0.867056         0.597051         0.575288
 H        -0.308803         0.813757        -1.040222
 H         1.945995         0.971765         2.263538
 H         1.637725        -0.700627         2.363282
 H         4.210237        -0.669915         1.888521
 H         2.937255         2.766320         0.371417
 H         4.179384         2.119242        -0.702703
 H         2.454578         0.872083        -1.626187
 H         4.060146        -1.036657        -0.663056
