19
Iteration:  1868charge 0 multiplicity 1
 C        -0.094129         0.076397        -0.056366
 C         1.392096         0.070055         0.193936
 C         1.947622         0.044220         1.655127
 C         3.520861        -0.075402         1.223533
 O         4.105750         1.202993         1.277292
 C         3.467966         1.914424         0.121295
 C         2.523075         0.854127        -0.562539
 C         3.220209        -0.512740        -0.223934
 O         1.926108        -1.260722        -0.413311
 H        -0.617723         0.666075         0.659864
 H        -0.516228         0.292811        -1.087547
 H        -0.428431        -0.948931         0.159153
 H         1.798559         1.094356         2.133199
 H         1.463828        -0.681185         2.372764
 H         4.189687        -0.806010         1.786484
 H         2.904406         2.762664         0.438199
 H         4.247775         2.079081        -0.574247
 H         2.291015         1.044519        -1.560147
 H         4.131453        -0.967228        -0.757340
