19
Iteration:  2032
 C        -0.097904         0.039519        -0.031641
 C         1.379983         0.089900         0.154054
 C         1.918498         0.093805         1.595521
 C         3.425731        -0.138961         1.272087
 O         4.154920         1.112723         1.249271
 C         3.449038         1.874757         0.068774
 C         2.517201         0.910618        -0.605580
 C         3.222760        -0.458417        -0.214859
 O         2.006758        -1.180935        -0.312805
 H        -0.562579         0.417076         0.898858
 H        -0.565056         0.525662        -0.988362
 H        -0.239473        -1.066615        -0.105273
 H         1.666335         0.876301         2.301252
 H         1.479577        -0.847577         1.963815
 H         4.045716        -0.669619         2.059313
 H         2.844833         2.674272         0.560908
 H         4.229288         2.268486        -0.523474
 H         2.333332         0.983158        -1.631450
 H         4.106766        -0.936895        -0.772890
