19
Iteration:  2146
 C        -0.102792         0.137499        -0.026308
 C         1.412136         0.077263         0.198576
 C         1.938550         0.005347         1.648241
 C         3.491379        -0.115934         1.268296
 O         4.055463         1.155284         1.243965
 C         3.381835         1.952683         0.124753
 C         2.596802         0.767559        -0.620472
 C         3.243843        -0.502069        -0.262193
 O         2.021853        -1.187724        -0.380720
 H        -0.527819         1.275813        -0.242001
 H        -0.477036        -0.497820        -0.810050
 H        -0.672179        -0.194891         0.927598
 H         1.814993         0.968709         2.237788
 H         1.349910        -0.872293         2.153339
 H         4.032188        -0.787559         1.920579
 H         2.738230         2.780707         0.474452
 H         4.285674         2.224047        -0.425000
 H         2.285975         0.817341        -1.721059
 H         4.102864        -0.998599        -0.693374
