19
Iteration:  4049
 C        -0.030229         0.321083        -0.088198
 C         1.388095        -0.006978         0.183846
 C         2.055623        -0.196751         1.740709
 C         3.495242        -0.157839         1.172187
 O         3.965820         1.248865         1.234924
 C         3.305402         1.912164         0.166054
 C         2.556877         0.819316        -0.585750
 C         3.311536        -0.482898        -0.333798
 O         1.971089        -1.240194        -0.285104
 H         0.047924         1.374966        -0.329932
 H        -0.439007        -0.159286        -0.997466
 H        -0.668563         0.225635         0.783951
 H         1.919944         0.639825         2.451230
 H         1.566624        -1.067296         2.277001
 H         4.260221        -0.726121         1.586635
 H         2.599289         2.679858         0.567872
 H         4.056787         2.359243        -0.492844
 H         2.205779         0.984954        -1.643352
 H         4.173132        -0.887506        -0.851272
