19
Iteration:  2411
 C         0.040906         0.412382        -0.023225
 C         1.441370        -0.039147         0.187945
 C         2.015932        -0.125997         1.707796
 C         3.483500        -0.082623         1.239278
 O         3.903754         1.284022         1.216868
 C         3.303650         1.886863         0.075813
 C         2.531311         0.767147        -0.571267
 C         3.266346        -0.603828        -0.320023
 O         2.037283        -1.300227        -0.301025
 H         0.146510         1.457928        -0.251241
 H        -0.413887         0.039474        -1.025600
 H        -0.788599         0.313783         0.750079
 H         1.785073         0.766088         2.465866
 H         1.681363        -1.031912         2.174243
 H         4.170815        -0.685177         1.823085
 H         2.576053         2.770001         0.499903
 H         4.012090         2.302184        -0.655934
 H         2.363481         0.924411        -1.569714
 H         4.118118        -1.117464        -0.811298
