19
Iteration:  2207charge 0 multiplicity 1
 C        -0.130933         0.174348        -0.161734
 C         1.384795         0.045808         0.204378
 C         2.033474         0.020072         1.664759
 C         3.460605        -0.131494         1.330177
 O         4.094406         1.140844         1.054131
 C         3.326516         1.924218         0.230412
 C         2.588023         0.826846        -0.539337
 C         3.251269        -0.509261        -0.206032
 O         2.003295        -1.216449        -0.322580
 H        -0.380841         1.149645        -0.435765
 H        -0.364807        -0.576984        -0.963338
 H        -0.703517         0.029491         0.698919
 H         1.925227         0.926195         2.231725
 H         1.524529        -0.804969         2.136007
 H         4.061567        -0.810534         1.934086
 H         2.564001         2.623666         0.686510
 H         4.112755         2.476941        -0.367964
 H         2.352230         1.058679        -1.620607
 H         4.090066        -1.007412        -0.671530
