19
Iteration:  3746
 C        -0.067025         0.225149        -0.072413
 C         1.414533         0.089646         0.165741
 C         1.984782        -0.011256         1.650984
 C         3.510151        -0.189108         1.256414
 O         4.078782         1.185772         1.221666
 C         3.217420         1.911124         0.254704
 C         2.626210         0.816129        -0.568249
 C         3.245041        -0.565008        -0.358653
 O         1.995139        -1.185909        -0.357824
 H        -0.249493         0.017315        -1.070751
 H        -0.579897        -0.536441         0.543533
 H        -0.371286         1.194628         0.202046
 H         1.828447         0.845821         2.333778
 H         1.615290        -0.980710         2.143491
 H         4.195247        -0.872643         1.698880
 H         2.503538         2.494929         0.814372
 H         3.880420         2.677750        -0.173347
 H         2.482219         0.835661        -1.665616
 H         4.047294        -0.929402        -0.985394
