19
Iteration:   746charge 0 multiplicity 1
 C         0.024323         0.246475        -0.004666
 C         1.444437         0.007046         0.134921
 C         1.973710        -0.261827         1.638344
 C         3.437498        -0.243648         1.217619
 O         3.957076         1.140011         1.360490
 C         3.297473         1.938962         0.295327
 C         2.560900         0.933059        -0.508127
 C         3.266530        -0.366078        -0.385159
 O         2.050479        -1.131693        -0.520707
 H        -0.456437         0.345434        -1.058222
 H        -0.535848        -0.704824         0.361817
 H        -0.155461         1.194491         0.555505
 H         1.732475         0.446672         2.337591
 H         1.561548        -1.275644         1.883181
 H         4.191548        -0.862592         1.723109
 H         2.636536         2.837956         0.601887
 H         4.105741         2.370896        -0.325769
 H         2.395310         1.322189        -1.568711
 H         4.050903        -0.791545        -0.999248
