19
Iteration:  4629
 C        -0.152887         0.075536         0.043931
 C         1.379357         0.090357         0.145905
 C         1.883296         0.202140         1.604988
 C         3.406739        -0.072904         1.371551
 O         4.182616         1.228950         1.037284
 C         3.460228         1.862230         0.009293
 C         2.585876         0.678051        -0.670823
 C         3.312340        -0.587706        -0.111891
 O         1.945577        -1.180850        -0.232373
 H        -0.592652        -0.597838         0.828311
 H        -0.557903         1.126793         0.084503
 H        -0.441333        -0.340978        -0.905576
 H         1.828802         1.099428         2.155777
 H         1.469558        -0.584217         2.235225
 H         4.038725        -0.650346         2.145924
 H         2.796871         2.535756         0.530992
 H         4.020507         2.366896        -0.791307
 H         2.465276         0.502783        -1.724844
 H         4.131720        -1.131806        -0.550297
