19
Iteration:  1160
 C        -0.096929         0.117341        -0.051856
 C         1.401205         0.043897         0.197549
 C         1.997771         0.067522         1.698612
 C         3.379118        -0.075399         1.233308
 O         4.068231         1.125789         1.246026
 C         3.404676         1.863044         0.063717
 C         2.612317         0.850949        -0.627098
 C         3.278713        -0.463982        -0.195801
 O         1.950709        -1.195555        -0.323861
 H        -0.832607         0.544980         0.707206
 H        -0.403180         0.503569        -1.160672
 H        -0.443139        -0.891077        -0.219878
 H         1.821358         0.864910         2.336338
 H         1.700199        -0.820979         2.150651
 H         4.099317        -0.790012         1.758313
 H         2.881123         2.706223         0.467558
 H         4.246798         2.108531        -0.639898
 H         2.354674         1.038157        -1.701391
 H         4.254708        -0.921857        -0.662690
