19
Iteration:  4900charge 0 multiplicity 1
 C        -0.105768         0.158878        -0.093348
 C         1.420310         0.022768         0.261659
 C         2.005926         0.259297         1.759620
 C         3.430352         0.017141         1.251105
 O         4.107047         1.266699         1.046350
 C         3.438565         1.735226        -0.092293
 C         2.527658         0.718427        -0.711187
 C         3.211910        -0.580834        -0.136523
 O         1.936599        -1.299491        -0.050186
 H        -0.264650         0.088754        -1.251001
 H        -0.732635        -0.736711         0.225372
 H        -0.645964         1.026101         0.241204
 H         2.014725         1.309830         2.100815
 H         1.638700        -0.523996         2.521465
 H         4.206468        -0.532871         1.919330
 H         2.863192         2.647703         0.182931
 H         4.213865         1.966891        -0.805721
 H         2.396942         0.513679        -1.772321
 H         4.167451        -1.140287        -0.555035
