19
Iteration:  4099charge 0 multiplicity 1
 C        -0.135194         0.093080         0.035000
 C         1.344394        -0.027757         0.152771
 C         1.918151         0.062395         1.605391
 C         3.442568        -0.134133         1.300500
 O         4.131803         1.103901         1.210468
 C         3.403972         1.933159         0.159831
 C         2.618319         0.949390        -0.619054
 C         3.225334        -0.478442        -0.277428
 O         2.047491        -1.220735        -0.398177
 H        -0.483764         0.944723         0.704948
 H        -0.602213         0.216886        -0.930210
 H        -0.412677        -0.900237         0.573049
 H         1.654118         1.105110         1.972667
 H         1.424736        -0.464947         2.345189
 H         4.082654        -0.827421         1.858624
 H         2.784045         2.592395         0.753057
 H         4.196875         2.396801        -0.457527
 H         2.425269         0.992767        -1.601599
 H         3.963420        -0.898815        -0.898324
