19
Iteration:   221
 C        -0.111518         0.055854        -0.029927
 C         1.375803         0.068710         0.108652
 C         2.063633        -0.395710         1.448474
 C         3.544118        -0.306444         0.978447
 O         4.103107         0.885107         1.436427
 C         3.235023         1.882453         0.866108
 C         2.434696         1.188843        -0.310223
 C         3.297219        -0.177333        -0.461044
 O         2.031020        -0.907447        -0.831527
 H        -0.596211        -0.512743         0.708258
 H        -0.523436         1.075795         0.080097
 H        -0.312659        -0.328482        -1.114706
 H         1.979364         0.314748         2.206720
 H         1.817794        -1.410157         1.861226
 H         4.174461        -1.136103         1.405745
 H         2.622870         2.321251         1.668861
 H         3.778164         2.808143         0.359661
 H         2.402131         1.648427        -1.244132
 H         4.151592        -0.154563        -1.221154
