19
Iteration:  2758
 C        -0.013631         0.410053        -0.046782
 C         1.423956         0.020736         0.261616
 C         2.022416        -0.129531         1.630434
 C         3.557930        -0.123408         1.279325
 O         3.928222         1.244848         1.164226
 C         3.215269         1.903113         0.054283
 C         2.587234         0.740913        -0.667396
 C         3.271161        -0.576250        -0.177726
 O         2.033823        -1.263308        -0.267127
 H        -0.087985         1.462575        -0.081921
 H        -0.277977         0.074785        -1.152697
 H        -0.854906        -0.021966         0.637838
 H         1.738613         0.697133         2.387122
 H         1.892189        -1.141437         1.906811
 H         4.144352        -0.665310         2.090592
 H         2.482184         2.634297         0.506846
 H         4.037268         2.406717        -0.473011
 H         2.355592         0.832093        -1.691827
 H         4.110824        -0.871116        -0.878932
