19
Iteration:  1459charge 0 multiplicity 1
 C        -0.016308         0.298794         0.030194
 C         1.473236        -0.008968         0.151219
 C         1.938989        -0.039309         1.627749
 C         3.419920        -0.142347         1.249856
 O         3.929037         1.224657         1.236533
 C         3.334781         1.915318         0.082591
 C         2.555613         0.786863        -0.551753
 C         3.285931        -0.530961        -0.306289
 O         2.080106        -1.260412        -0.309024
 H         0.042275         1.402878        -0.169570
 H        -0.464136        -0.081855        -0.896884
 H        -0.594223         0.155911         1.025729
 H         1.880448         0.746733         2.313928
 H         1.502647        -0.982848         2.051295
 H         4.083873        -0.765568         1.821995
 H         2.743722         2.723463         0.428311
 H         4.142308         2.135117        -0.723982
 H         2.247403         1.015478        -1.653317
 H         4.068250        -1.069356        -0.831354
