19
Iteration:  1494
 C        -0.144771         0.088799        -0.141010
 C         1.362237         0.052599         0.175082
 C         1.992733         0.091433         1.658454
 C         3.486988        -0.130015         1.258142
 O         4.193446         1.198941         1.147550
 C         3.310310         1.892028         0.225843
 C         2.650725         0.840844        -0.525638
 C         3.236699        -0.602688        -0.263255
 O         1.949112        -1.161376        -0.324803
 H        -0.318441         1.145856        -0.534448
 H        -0.411155        -0.684226        -0.839277
 H        -0.879260        -0.178036         0.831085
 H         1.718369         0.889540         2.408623
 H         1.627876        -0.844249         2.079616
 H         3.973071        -0.814475         1.982359
 H         2.697754         2.577932         0.795192
 H         3.835185         2.644626        -0.467096
 H         2.425198         1.135539        -1.614364
 H         4.024953        -1.203599        -0.852505
