19
Iteration:  3725
 C         0.045088         0.377820        -0.106649
 C         1.446912        -0.051738         0.218339
 C         2.044320        -0.105970         1.613600
 C         3.486158        -0.176417         1.186137
 O         4.008576         1.178293         1.208881
 C         3.204806         1.874208         0.265514
 C         2.453188         0.888263        -0.563076
 C         3.290432        -0.486497        -0.286758
 O         2.005441        -1.290612        -0.308989
 H        -0.159429        -0.162344        -0.972072
 H        -0.788861         0.180801         0.579215
 H         0.048361         1.393636        -0.350240
 H         1.949078         0.811895         2.223761
 H         1.762473        -1.106585         1.975703
 H         4.187299        -0.632567         1.788418
 H         2.610148         2.596237         0.836934
 H         3.853216         2.547372        -0.334553
 H         2.219886         1.189764        -1.618217
 H         4.146318        -0.802885        -0.843238
