19
Iteration:  1307charge 0 multiplicity 1
 C        -0.089871         0.267021        -0.026476
 C         1.426577        -0.021236         0.169192
 C         1.959651        -0.030867         1.674518
 C         3.472296        -0.070320         1.225252
 O         4.044516         1.247623         1.297171
 C         3.406183         1.927775         0.085300
 C         2.561451         0.767831        -0.602470
 C         3.277531        -0.551770        -0.320908
 O         1.981152        -1.293415        -0.335663
 H        -0.414554         1.260919         0.280626
 H        -0.525361         0.003781        -0.998039
 H        -0.714211        -0.434683         0.672498
 H         1.755234         0.888593         2.266082
 H         1.615300        -0.936319         2.275807
 H         4.027424        -0.782497         1.769582
 H         2.776313         2.804950         0.379056
 H         4.219020         2.437686        -0.438806
 H         2.268060         1.017206        -1.652539
 H         4.124994        -0.928129        -0.784529
