19
Iteration:   156charge 0 multiplicity 1
 C        -0.084964         0.199513         0.052338
 C         1.397335         0.046730         0.195927
 C         2.071240        -0.628269         1.439764
 C         3.579696        -0.322206         1.000128
 O         3.975410         0.929768         1.516608
 C         3.191474         1.917222         0.786002
 C         2.483813         1.138533        -0.299354
 C         3.324351        -0.108572        -0.603775
 O         2.086506        -0.874269        -0.913594
 H        -0.440132         1.149361         0.156669
 H        -0.496026        -0.187803        -0.893988
 H        -0.731961        -0.313743         0.859536
 H         1.931311        -0.176706         2.321212
 H         1.809997        -1.714816         1.601408
 H         4.315290        -1.057579         1.460721
 H         2.503244         2.373624         1.573534
 H         3.901804         2.765705         0.540819
 H         2.205661         1.714943        -1.169904
 H         4.163833        -0.287317        -1.358477
