19
Iteration:  1133charge 0 multiplicity 1
 C         0.002098         0.357311        -0.046435
 C         1.451331        -0.046597         0.149070
 C         1.936255        -0.012664         1.594740
 C         3.446864        -0.101743         1.219164
 O         4.001307         1.246170         1.208175
 C         3.287227         1.952030         0.137618
 C         2.616629         0.755171        -0.498244
 C         3.284550        -0.616985        -0.257418
 O         2.025671        -1.317652        -0.323774
 H        -0.303860         1.057119         0.751689
 H        -0.324613         0.817759        -0.903677
 H        -0.795044        -0.506184         0.154005
 H         1.741792         1.008905         2.145450
 H         1.538857        -0.940739         2.195795
 H         4.161084        -0.630138         1.842562
 H         2.590899         2.726087         0.562341
 H         4.023565         2.292193        -0.551060
 H         2.276257         0.973860        -1.528155
 H         4.069763        -1.036805        -0.796428
