19
Iteration:  4169
 C        -0.017902         0.366437        -0.083194
 C         1.442007         0.027403         0.240108
 C         2.000672        -0.128153         1.649719
 C         3.516363        -0.019793         1.235274
 O         4.047612         1.228165         1.163741
 C         3.257879         1.895221         0.112871
 C         2.533875         0.739430        -0.561734
 C         3.238980        -0.557526        -0.236415
 O         1.989438        -1.279406        -0.294865
 H        -0.430933         0.517696         0.874957
 H        -0.142606         1.290667        -0.701692
 H        -0.390082        -0.550288        -0.493906
 H         1.651190         0.681707         2.333505
 H         1.762041        -1.121229         2.241128
 H         4.194089        -0.624110         1.866216
 H         2.484726         2.544023         0.528022
 H         3.918025         2.364048        -0.608947
 H         2.313767         0.881150        -1.712713
 H         4.091115        -0.977782        -0.900338
