19
Iteration:  1723charge 0 multiplicity 1
 C        -0.011029         0.245433        -0.009204
 C         1.417614         0.050204         0.229331
 C         1.964254        -0.140644         1.614487
 C         3.487889        -0.076582         1.242231
 O         3.971746         1.233857         1.225573
 C         3.366939         1.859404         0.121073
 C         2.572467         0.796844        -0.634769
 C         3.288247        -0.557774        -0.203749
 O         1.984651        -1.148004        -0.401106
 H        -0.251471         1.247356        -0.220565
 H        -0.482206        -0.372696        -0.651669
 H        -0.574624        -0.032493         0.953950
 H         1.637811         0.598648         2.455661
 H         1.631719        -1.074767         1.986618
 H         4.173537        -0.631252         1.852047
 H         2.742855         2.720665         0.499020
 H         4.245393         2.318966        -0.445377
 H         2.114460         0.828879        -1.699061
 H         4.129621        -1.032219        -0.632481
