19
Iteration:   581charge 0 multiplicity 1
 C        -0.073372         0.214822         0.084823
 C         1.436933         0.046346         0.084999
 C         2.016875        -0.382641         1.499544
 C         3.499771        -0.233689         1.168375
 O         3.946078         1.089329         1.440747
 C         3.327170         2.025472         0.407356
 C         2.520110         0.956002        -0.502307
 C         3.282638        -0.411429        -0.370940
 O         2.034841        -1.037672        -0.628757
 H        -0.165486         1.300284         0.179321
 H        -0.475848        -0.035187        -0.888026
 H        -0.423594        -0.437295         0.946509
 H         1.767473         0.402772         2.163812
 H         1.783876        -1.414298         1.846220
 H         4.138822        -0.964575         1.748418
 H         2.598080         2.712150         0.918109
 H         4.084458         2.474262        -0.191582
 H         2.505286         1.267410        -1.512387
 H         4.073476        -0.644400        -1.062549
