19
Iteration:  2138
 C        -0.084717         0.182593        -0.016913
 C         1.468494         0.060502         0.145993
 C         1.949674        -0.028530         1.664216
 C         3.442346        -0.144018         1.364282
 O         4.046120         1.216688         1.221353
 C         3.347379         1.874853         0.104355
 C         2.598113         0.790816        -0.613114
 C         3.266960        -0.550481        -0.263668
 O         1.991371        -1.176919        -0.391110
 H        -0.343797         1.252635        -0.112400
 H        -0.456233        -0.319726        -0.906889
 H        -0.620793        -0.178817         0.936837
 H         1.662014         0.946700         2.253398
 H         1.492146        -0.890282         2.127597
 H         4.277279        -0.659328         1.930317
 H         2.729713         2.648652         0.522792
 H         4.134562         2.418671        -0.586093
 H         2.241171         0.957170        -1.584470
 H         4.133155        -0.978546        -0.881497
