19
Iteration:  3610charge 0 multiplicity 1
 C        -0.055998         0.108851        -0.184993
 C         1.360331         0.069732         0.253935
 C         1.946345        -0.044860         1.696230
 C         3.426192        -0.107763         1.340740
 O         4.181607         1.143003         1.095234
 C         3.404210         1.952689         0.221149
 C         2.591873         0.896109        -0.572969
 C         3.181196        -0.507404        -0.278307
 O         1.968577        -1.203095        -0.318452
 H        -0.148765         0.651551        -1.185240
 H        -0.550046        -0.830838        -0.350626
 H        -0.725102         0.578125         0.555751
 H         1.753620         0.696884         2.533579
 H         1.720143        -1.120007         2.053749
 H         3.898759        -0.807973         1.972586
 H         2.678349         2.651518         0.696381
 H         4.024491         2.549197        -0.436481
 H         2.360791         1.074535        -1.594666
 H         4.046107        -0.824887        -0.776828
