19
Iteration:  3738
 C        -0.035107         0.270835        -0.114532
 C         1.445310         0.069786         0.166766
 C         2.039685        -0.075323         1.662730
 C         3.524378        -0.134337         1.221302
 O         4.049726         1.154649         1.231728
 C         3.209132         1.892415         0.277832
 C         2.565450         0.811814        -0.622264
 C         3.271297        -0.499354        -0.316911
 O         1.986316        -1.226667        -0.334865
 H        -0.341583        -0.011576        -1.128104
 H        -0.541144        -0.301943         0.682094
 H        -0.281198         1.306068         0.029814
 H         1.848970         0.775836         2.378621
 H         1.620688        -0.823318         2.220765
 H         4.102936        -0.887459         1.651373
 H         2.384801         2.430343         0.778682
 H         3.883404         2.572981        -0.263633
 H         2.192707         1.159497        -1.595149
 H         4.022552        -1.037471        -0.798862
