19
Iteration:  3932charge 0 multiplicity 1
 C        -0.131713         0.037000        -0.132533
 C         1.424566         0.074641         0.263269
 C         1.902390         0.012220         1.679498
 C         3.434502        -0.113424         1.247788
 O         4.161528         1.206902         1.214738
 C         3.499644         1.890974         0.058757
 C         2.518405         0.839664        -0.443198
 C         3.222018        -0.447868        -0.293125
 O         1.977445        -1.200960        -0.319282
 H        -0.783665         0.451765         0.651825
 H        -0.606040         0.710850        -0.998291
 H        -0.559140        -0.978562        -0.277228
 H         1.735524         0.845223         2.470952
 H         1.566677        -0.956012         2.146849
 H         4.118862        -0.841117         1.647456
 H         3.067319         2.878116         0.338712
 H         4.263154         2.083076        -0.748313
 H         2.226650         1.055144        -1.530809
 H         4.020328        -0.795038        -0.980765
