19
Iteration:  1822charge 0 multiplicity 1
 C        -0.079718         0.061996        -0.123087
 C         1.361897         0.113462         0.126932
 C         1.962496         0.056303         1.658404
 C         3.404357        -0.159335         1.281898
 O         4.223613         1.189274         1.104470
 C         3.398386         1.926488         0.204623
 C         2.570503         0.825558        -0.509817
 C         3.210770        -0.483741        -0.230761
 O         1.953186        -1.218318        -0.288740
 H        -0.600672         0.618129         0.629057
 H        -0.417875         0.369214        -1.064150
 H        -0.458429        -1.059156        -0.033483
 H         1.866204         0.985473         2.357430
 H         1.477568        -0.711976         2.150244
 H         4.018469        -0.823558         1.913597
 H         2.721328         2.578176         0.737768
 H         3.933078         2.418018        -0.509772
 H         2.432949         0.931934        -1.633873
 H         3.966616        -0.863759        -0.891408
