19
Iteration:  4056charge 0 multiplicity 1
 C        -0.024718         0.282070        -0.059046
 C         1.453499         0.025287         0.161110
 C         2.010321        -0.211983         1.729969
 C         3.524213        -0.157726         1.217359
 O         3.978497         1.245293         1.221257
 C         3.327447         1.964833         0.150688
 C         2.574444         0.788752        -0.615360
 C         3.237111        -0.510215        -0.315280
 O         1.963033        -1.197950        -0.302420
 H        -0.346423         1.315305        -0.350168
 H        -0.468436        -0.133036        -0.920933
 H        -0.628359        -0.018986         0.838885
 H         1.795333         0.700996         2.423267
 H         1.617864        -1.121952         2.157459
 H         4.322095        -0.748067         1.711055
 H         2.591149         2.648606         0.569359
 H         4.182925         2.444798        -0.372189
 H         2.302009         1.041452        -1.577125
 H         4.045028        -0.996000        -0.807477
