19
Iteration:  2246charge 0 multiplicity 1
 O         0.553643         0.224776        -0.010646
 C        -0.539723         0.394773         0.757219
 C        -1.738111        -0.002362         0.036939
 C        -2.495032         0.927648         1.011825
 C        -1.257008         1.854281         0.944578
 C        -1.094835         2.561421         2.251400
 O        -1.942100         1.766857         3.129567
 C        -2.109178         0.511647         2.432743
 C        -0.797521        -0.187871         2.155752
 H         1.295613         0.287885         0.594516
 H        -1.859946         0.146610        -1.062034
 H        -2.105705        -1.057535         0.231059
 H        -3.544370         1.206094         0.955886
 H        -1.063209         2.384292         0.019307
 H        -0.073547         2.524273         2.779257
 H        -1.356200         3.661495         2.228064
 H        -2.777715         0.059185         3.145626
 H         0.030446        -0.037191         2.943095
 H        -0.855997        -1.245610         2.178618
