19
Iteration:  2793
 O         0.661658         0.312937         0.138631
 C        -0.592871         0.410541         0.784570
 C        -1.794792        -0.035842         0.035437
 C        -2.611734         0.908813         0.990638
 C        -1.323772         1.858504         0.877951
 C        -1.092137         2.541784         2.209393
 O        -1.859998         1.784932         3.151363
 C        -2.112704         0.532710         2.431605
 C        -0.718190        -0.247568         2.105157
 H         1.090932        -0.461382         0.705392
 H        -1.924409         0.242724        -1.035618
 H        -2.047825        -1.083259        -0.030733
 H        -3.632360         1.284512         0.956287
 H        -1.140380         2.458783        -0.007431
 H        -0.000006         2.502072         2.620554
 H        -1.413757         3.569132         2.243592
 H        -2.964278        -0.006249         3.053960
 H         0.214684         0.086058         2.671904
 H        -0.951543        -1.269677         1.975376
