19
Iteration:  1892
 O         0.735283         0.448613         0.151008
 C        -0.563699         0.401773         0.727610
 C        -1.941652        -0.074201        -0.015193
 C        -2.547135         1.011390         0.997742
 C        -1.222567         1.771882         0.895659
 C        -1.050933         2.454691         2.191644
 O        -1.841070         1.761960         3.167469
 C        -2.190693         0.520596         2.454436
 C        -0.818384        -0.215568         2.168049
 H         1.092786        -0.508931         0.310562
 H        -2.134076         0.337132        -1.032689
 H        -2.307490        -1.120082         0.230222
 H        -3.610140         1.267249         0.857439
 H        -1.031653         2.329926        -0.007867
 H         0.053368         2.404867         2.420484
 H        -1.374867         3.436820         2.113481
 H        -2.796674        -0.141601         3.114295
 H        -0.064643        -0.014280         2.843332
 H        -1.005803        -1.285096         2.028287
