19
Iteration:  4858
 O         0.766804         0.070935         0.186855
 C        -0.560821         0.416175         0.665827
 C        -1.886707        -0.001714         0.015413
 C        -2.552238         1.019484         1.058670
 C        -1.224188         1.836782         0.890478
 C        -1.160593         2.626603         2.234554
 O        -1.881111         1.703964         3.237633
 C        -2.125545         0.530738         2.416132
 C        -0.810581        -0.160174         2.083299
 H         1.165346         0.972689        -0.142331
 H        -1.979731         0.420894        -1.069336
 H        -2.229366        -1.107001        -0.208952
 H        -3.539623         1.343895         0.800597
 H        -1.167993         2.377651        -0.013369
 H        -0.168917         2.763225         2.624019
 H        -1.680791         3.531798         2.213594
 H        -2.714069        -0.110437         3.012325
 H         0.005463        -0.058922         2.757029
 H        -0.905730        -1.246803         1.883441
