19
Iteration:  2072charge 0 multiplicity 1
 O         0.671709         0.365369         0.110363
 C        -0.565352         0.293432         0.722257
 C        -1.943494        -0.019249         0.015331
 C        -2.476062         0.987043         1.036817
 C        -1.182076         1.791191         0.903282
 C        -1.173924         2.616872         2.166039
 O        -1.903282         1.782729         3.175926
 C        -2.049452         0.550167         2.471059
 C        -0.760803        -0.333433         2.162080
 H         1.095748        -0.516314         0.182770
 H        -2.053726         0.293718        -1.086032
 H        -2.429758        -1.044931         0.252357
 H        -3.454580         1.500590         0.925743
 H        -0.863920         2.287602        -0.047586
 H        -0.260414         2.916776         2.737285
 H        -1.722719         3.477413         1.894436
 H        -2.795878        -0.094181         2.956043
 H         0.070097         0.081490         2.855944
 H        -0.958739        -1.388698         2.039307
