19
Iteration:  2822charge 0 multiplicity 1
 O         0.754790         0.316974         0.124771
 C        -0.571129         0.425698         0.686660
 C        -1.918679        -0.029668        -0.003137
 C        -2.546522         0.925110         1.054748
 C        -1.289657         1.768100         0.887744
 C        -1.063513         2.420818         2.201384
 O        -1.893110         1.811336         3.132625
 C        -2.122451         0.458666         2.435545
 C        -0.782866        -0.140532         2.154806
 H         1.391344         0.336526         1.004739
 H        -2.168825         0.358618        -1.054960
 H        -2.309628        -1.084867         0.060572
 H        -3.507228         1.402027         1.058560
 H        -1.343215         2.522909         0.028164
 H        -0.105303         2.429638         2.645710
 H        -1.236169         3.669071         2.176200
 H        -2.840520        -0.036927         2.959995
 H         0.010449         0.267377         2.756812
 H        -1.033247        -1.347674         2.237503
