19
Iteration:  1998charge 0 multiplicity 1
 O         0.689463         0.370295         0.146695
 C        -0.562513         0.394333         0.689362
 C        -1.951393        -0.005337         0.071711
 C        -2.531028         0.922190         1.045366
 C        -1.257525         1.814607         0.875346
 C        -1.019976         2.497159         2.174842
 O        -1.919081         1.772422         3.099286
 C        -2.116691         0.476083         2.445620
 C        -0.795445        -0.191210         2.173071
 H         1.170892        -0.484253         0.576070
 H        -2.139981         0.362282        -0.992237
 H        -2.057919        -1.038199         0.057899
 H        -3.561191         1.309201         1.082080
 H        -1.188217         2.423322        -0.025731
 H         0.049650         2.475365         2.414148
 H        -1.225722         3.695705         2.266995
 H        -2.817089        -0.219050         2.953664
 H         0.149320         0.141900         2.764285
 H        -0.790799        -1.327179         2.271356
