19
Iteration:  4446charge 0 multiplicity 1
 O         0.654704         0.091154         0.159569
 C        -0.543308         0.472330         0.746729
 C        -1.765673         0.066737         0.009218
 C        -2.504869         1.025142         0.990079
 C        -1.285073         1.961485         0.927380
 C        -1.176238         2.568592         2.311417
 O        -1.863523         1.711631         3.219198
 C        -2.127012         0.427181         2.399289
 C        -0.780258        -0.265774         2.062132
 H         0.731623         0.571625        -0.725730
 H        -1.815859         0.342961        -1.077237
 H        -1.975811        -0.975500        -0.050252
 H        -3.554197         1.469982         0.818670
 H        -1.075477         2.539363         0.050012
 H        -0.171632         2.670457         2.807430
 H        -1.721439         3.525709         2.139422
 H        -2.901827        -0.142793         2.971913
 H        -0.126942        -0.085254         2.851240
 H        -0.750936        -1.326830         1.821736
