19
Iteration:  4071
 O         0.670588         0.246971         0.203056
 C        -0.584216         0.459301         0.716925
 C        -1.835479        -0.025542         0.028176
 C        -2.457146         1.032341         0.992572
 C        -1.267762         1.866146         0.866319
 C        -1.025673         2.397010         2.262601
 O        -1.916454         1.713075         3.150039
 C        -2.194328         0.519418         2.421596
 C        -0.790930        -0.192312         2.129537
 H         0.774032         1.019603        -0.400571
 H        -1.849507         0.461324        -0.983675
 H        -2.155180        -1.109625         0.107205
 H        -3.438965         1.262032         0.722015
 H        -1.359574         2.501739        -0.044944
 H        -0.052382         2.077019         2.651206
 H        -1.024567         3.425862         2.420027
 H        -2.999830        -0.112937         2.805623
 H        -0.068093         0.181843         2.900003
 H        -0.920884        -1.238135         2.177632
