19
Iteration:  2836
 O         0.703860         0.309358         0.102580
 C        -0.576654         0.370624         0.739135
 C        -1.915544        -0.074528         0.047606
 C        -2.574147         0.979275         0.986830
 C        -1.254737         1.822690         0.869590
 C        -1.033764         2.512295         2.232368
 O        -1.904590         1.706262         3.163859
 C        -2.195038         0.569387         2.446588
 C        -0.743146        -0.182036         2.134490
 H         1.343634         0.639689         0.703216
 H        -1.885877         0.255748        -1.031198
 H        -2.117828        -1.136558         0.048836
 H        -3.546938         1.357803         0.767624
 H        -1.062322         2.339858        -0.056241
 H         0.083050         2.451452         2.410227
 H        -1.485550         3.576010         2.240522
 H        -2.887407        -0.098377         3.090422
 H        -0.028589         0.213502         2.946163
 H        -0.585164        -1.313610         2.147175
