19
Iteration:  4441charge 0 multiplicity 1
 O         0.640438         0.093003         0.139150
 C        -0.559384         0.429762         0.734761
 C        -1.776171         0.053825         0.003128
 C        -2.519730         1.033220         0.984085
 C        -1.274490         1.952266         0.967167
 C        -1.228773         2.562467         2.336090
 O        -1.848676         1.710963         3.222915
 C        -2.146867         0.488869         2.372349
 C        -0.732915        -0.285726         2.056808
 H         0.984069         0.540480        -0.693772
 H        -1.624779         0.489084        -0.998487
 H        -1.897992        -1.073900         0.052213
 H        -3.454310         1.502926         0.817937
 H        -1.074855         2.442932        -0.033489
 H        -0.211547         2.867628         2.705895
 H        -1.711775         3.552241         2.288866
 H        -2.935021        -0.049835         2.900738
 H         0.048265        -0.057913         2.874358
 H        -0.827656        -1.392288         1.861029
