19
Iteration:   360charge 0 multiplicity 1
 O         0.619045         0.294966         0.173101
 C        -0.613921         0.469396         0.846315
 C        -1.764141         0.144330         0.021657
 C        -2.531173         1.039332         0.947405
 C        -1.214466         1.822069         0.921967
 C        -1.054542         2.477242         2.176602
 O        -1.793028         1.727264         3.141055
 C        -2.164002         0.484436         2.398739
 C        -0.909192        -0.395498         2.112200
 H         1.317952        -0.150757         0.852120
 H        -1.679370         0.504767        -1.047169
 H        -2.080114        -0.949692        -0.036362
 H        -3.523581         1.420940         0.656739
 H        -1.064635         2.420725         0.028834
 H         0.072864         2.655139         2.425532
 H        -1.478782         3.437411         2.234780
 H        -3.136641         0.099825         2.864976
 H        -0.251788        -0.363700         3.014567
 H        -1.269078        -1.413620         1.893282
