19
Iteration:  3601
 O         0.717549         0.231735         0.121336
 C        -0.532227         0.451793         0.793162
 C        -1.847998        -0.032844         0.110152
 C        -2.587550         0.936765         1.011509
 C        -1.283637         1.881439         0.827271
 C        -1.192802         2.608797         2.142332
 O        -1.770106         1.666855         3.164790
 C        -2.129549         0.505474         2.425670
 C        -0.821533        -0.157327         2.170646
 H         1.215594        -0.549130         0.424524
 H        -1.913548         0.383026        -0.877464
 H        -2.207070        -1.033457         0.021588
 H        -3.494099         1.431425         0.655232
 H        -1.186990         2.439025        -0.215970
 H        -0.166751         2.695360         2.421820
 H        -1.771487         3.640800         2.209374
 H        -2.832130        -0.108625         2.978608
 H        -0.199408         0.169286         3.023180
 H        -0.750476        -1.264741         2.025735
