19
Iteration:  3413
 O         0.653443         0.255284         0.123470
 C        -0.590029         0.471610         0.776923
 C        -1.910184        -0.113381         0.014093
 C        -2.577499         0.974087         0.998159
 C        -1.164956         1.811024         0.891518
 C        -1.069834         2.586346         2.140337
 O        -1.921507         1.716883         3.121574
 C        -2.113291         0.500783         2.489192
 C        -0.722573        -0.199813         2.163405
 H         1.294403         0.671396         0.752490
 H        -1.855470         0.117385        -1.009933
 H        -2.156436        -1.152654         0.112357
 H        -3.557938         1.420449         0.824005
 H        -1.120509         2.599291        -0.024626
 H        -0.069178         2.689675         2.544301
 H        -1.636726         3.591846         2.078775
 H        -2.834697        -0.065674         3.129740
 H        -0.025163        -0.015727         2.953486
 H        -0.866286        -1.273355         2.042953
