19
Iteration:  2482
 O         0.612059         0.252353         0.084472
 C        -0.530513         0.416001         0.780132
 C        -1.782007         0.017228         0.014204
 C        -2.549961         0.927974         1.035966
 C        -1.307953         1.801345         0.906181
 C        -1.220540         2.677337         2.184181
 O        -1.766787         1.684123         3.115438
 C        -2.111691         0.533348         2.465790
 C        -0.800929        -0.245900         2.192135
 H         1.424583        -0.144489         0.639250
 H        -1.782118         0.562004        -0.902147
 H        -2.033999        -1.126887        -0.051307
 H        -3.518414         1.527964         0.836109
 H        -1.270118         2.310254        -0.099494
 H        -0.119458         2.895875         2.426183
 H        -1.764562         3.581242         2.109198
 H        -2.794895        -0.050002         3.080545
 H        -0.061660        -0.198064         2.927768
 H        -0.856654        -1.360749         1.903131
