19
Iteration:  1117
 O         0.655900         0.272317         0.135237
 C        -0.555887         0.488649         0.819525
 C        -1.844537         0.054101         0.024764
 C        -2.573930         1.052770         0.976714
 C        -1.198804         1.795180         0.916630
 C        -1.116011         2.533757         2.215497
 O        -1.775809         1.641678         3.189436
 C        -2.172190         0.493402         2.383129
 C        -0.880879        -0.275089         2.050488
 H         1.293297        -0.099431         0.671089
 H        -1.544219         0.369350        -0.923362
 H        -2.025754        -1.047564        -0.026619
 H        -3.527127         1.673186         0.911177
 H        -1.062483         2.534705         0.076307
 H        -0.118360         2.693603         2.590210
 H        -1.731130         3.612856         2.177057
 H        -2.887522         0.077417         3.054571
 H        -0.162707        -0.265994         2.891107
 H        -1.103515        -1.378059         1.753283
