19
Iteration:  3352charge 0 multiplicity 1
 O         0.613948         0.239919         0.091313
 C        -0.587786         0.361300         0.750040
 C        -1.888320        -0.153906         0.086797
 C        -2.477787         0.981753         1.011082
 C        -1.183793         1.855178         0.907670
 C        -1.160630         2.614460         2.309003
 O        -1.921098         1.758994         3.099374
 C        -2.089749         0.535413         2.380673
 C        -0.744709        -0.174985         2.078525
 H         1.326179         0.352263         0.627465
 H        -1.900694         0.107254        -1.017957
 H        -2.188395        -1.234190         0.341701
 H        -3.463969         1.374332         0.800110
 H        -1.124655         2.429178         0.008511
 H        -0.062711         2.641298         2.606785
 H        -1.502346         3.615773         2.284442
 H        -2.731879        -0.052495         2.973279
 H        -0.088802         0.338182         2.873418
 H        -0.656059        -1.277162         2.170860
