19
Iteration:   186charge 0 multiplicity 1
 O         0.745228         0.259668         0.258688
 C        -0.592205         0.343579         0.753692
 C        -1.895013         0.072150        -0.033109
 C        -2.484766         1.057777         0.999096
 C        -1.233850         1.822577         0.889801
 C        -1.014704         2.515375         2.248803
 O        -1.907421         1.791902         3.125603
 C        -2.162972         0.525942         2.454146
 C        -0.878455        -0.439276         2.075780
 H         1.015655         1.119234         0.188108
 H        -1.819495         0.571043        -0.990541
 H        -2.342530        -0.950887        -0.110604
 H        -3.399024         1.598303         0.886779
 H        -1.197374         2.423941         0.005365
 H         0.027547         2.412172         2.471879
 H        -1.368553         3.649192         2.088529
 H        -2.934330        -0.029990         3.018683
 H        -0.024548        -0.375600         2.757193
 H        -1.112226        -1.515892         1.895682
