19
Iteration:  1172
 O         0.618592         0.142294         0.083628
 C        -0.534175         0.451743         0.643434
 C        -1.809054         0.096272         0.010748
 C        -2.479894         1.015035         1.050386
 C        -1.179764         1.924173         0.905246
 C        -1.073052         2.448423         2.311258
 O        -1.950009         1.699940         3.157091
 C        -2.212680         0.456380         2.417768
 C        -0.812636        -0.217696         2.119026
 H         1.353836         0.642716         0.545579
 H        -1.982849         0.401785        -0.952337
 H        -2.006202        -1.009771         0.118643
 H        -3.478646         1.395145         0.777722
 H        -1.192217         2.681104         0.106747
 H        -0.105980         2.378615         2.763963
 H        -1.260629         3.648741         2.369163
 H        -2.971792         0.062249         3.047730
 H         0.001088         0.092589         2.771635
 H        -0.740337        -1.360100         2.111159
