19
Iteration:  2668charge 0 multiplicity 1
 O         0.648678         0.442109         0.076372
 C        -0.551024         0.388449         0.749082
 C        -1.937089        -0.122181         0.106123
 C        -2.507075         0.980225         1.055563
 C        -1.189409         1.771102         0.944626
 C        -1.054057         2.564380         2.193931
 O        -1.924819         1.743849         3.092095
 C        -2.144157         0.496671         2.411978
 C        -0.756040        -0.218681         2.108138
 H         1.259745        -0.299636         0.468901
 H        -1.883314         0.124140        -0.964171
 H        -2.377306        -1.070831         0.514794
 H        -3.464669         1.408376         0.722379
 H        -1.047326         2.317610        -0.027295
 H        -0.045103         2.684877         2.571942
 H        -1.609741         3.554382         2.154728
 H        -2.790755        -0.060700         2.998916
 H        -0.061978        -0.027567         2.919752
 H        -0.792702        -1.407628         2.117405
