19
Iteration:  1364
 O         0.607381         0.109716         0.122381
 C        -0.603623         0.450413         0.708784
 C        -1.849428         0.030931        -0.054251
 C        -2.559547         0.970824         1.031430
 C        -1.153568         1.938187         0.968245
 C        -1.101591         2.532421         2.334931
 O        -1.942740         1.675157         3.144050
 C        -2.145422         0.506645         2.377230
 C        -0.711210        -0.160983         2.081910
 H         1.388213         0.470886         0.683007
 H        -1.771775         0.513456        -1.120642
 H        -2.081986        -0.970543         0.025788
 H        -3.588420         1.437796         0.998627
 H        -0.992881         2.472685        -0.004314
 H        -0.105108         2.350961         2.719599
 H        -1.423760         3.630714         2.344348
 H        -2.748122        -0.178104         2.950537
 H         0.140428         0.211152         2.737860
 H        -0.862074        -1.216849         2.031308
