19
Iteration:  2007
 O         0.706523         0.346909         0.165907
 C        -0.617070         0.460893         0.718800
 C        -1.874891        -0.090257        -0.038309
 C        -2.607017         0.914157         1.062780
 C        -1.304000         1.807478         0.893423
 C        -0.985050         2.491797         2.226450
 O        -1.871154         1.774683         3.114897
 C        -2.124819         0.540165         2.453257
 C        -0.744582        -0.178287         2.115301
 H         1.058321        -0.583395         0.502785
 H        -2.038222         0.330075        -1.062152
 H        -2.180790        -1.080241         0.075215
 H        -3.668971         1.119516         0.855152
 H        -1.366509         2.454358        -0.018758
 H         0.096488         2.336084         2.475608
 H        -1.293053         3.578690         2.231441
 H        -2.797587         0.077312         3.186682
 H        -0.111207         0.263664         2.980159
 H        -0.868691        -1.275901         2.109376
