19
Iteration:  1097charge 0 multiplicity 1
 O         0.736300         0.307780         0.111986
 C        -0.589971         0.378881         0.715332
 C        -1.873646         0.029897        -0.039777
 C        -2.477385         0.981775         0.965404
 C        -1.252095         1.928593         0.928778
 C        -1.074569         2.590666         2.290003
 O        -1.777433         1.678178         3.201278
 C        -2.194564         0.507553         2.397373
 C        -0.948015        -0.316098         2.147209
 H         1.275141        -0.256514         0.640562
 H        -2.062514         0.378918        -1.029720
 H        -2.168364        -1.103365         0.000298
 H        -3.474681         1.247973         0.654948
 H        -1.035515         2.512288         0.047583
 H        -0.026944         2.778488         2.527494
 H        -1.632344         3.529308         2.480617
 H        -3.050579         0.051478         2.906245
 H        -0.154655        -0.159641         2.921508
 H        -0.979105        -1.456582         1.996979
