19
Iteration:  3449
 O         0.717022         0.229118         0.119388
 C        -0.520029         0.436141         0.726663
 C        -1.864258        -0.117597        -0.009350
 C        -2.605283         0.917857         0.936247
 C        -1.272098         1.879493         0.908008
 C        -1.202808         2.667536         2.180900
 O        -1.770094         1.711978         3.184410
 C        -2.151592         0.542641         2.494045
 C        -0.793690        -0.201688         2.165276
 H         1.320496        -0.282728         0.677957
 H        -1.812909         0.187739        -1.057590
 H        -2.156759        -1.170397         0.064476
 H        -3.590425         1.377885         0.859605
 H        -1.095069         2.495699        -0.069039
 H        -0.267007         3.030547         2.637001
 H        -1.819603         3.531143         2.098818
 H        -2.766973        -0.021608         3.159070
 H        -0.105497         0.061779         2.950692
 H        -0.832133        -1.251081         2.005941
