19
Iteration:  1116
 O         0.657169         0.273521         0.135477
 C        -0.548390         0.491938         0.818924
 C        -1.842498         0.047584         0.025360
 C        -2.584200         1.051838         0.973941
 C        -1.193611         1.795326         0.908371
 C        -1.118384         2.535255         2.218030
 O        -1.770796         1.646454         3.197977
 C        -2.174907         0.489537         2.376171
 C        -0.878128        -0.279733         2.053553
 H         1.276260        -0.101186         0.650749
 H        -1.539660         0.378207        -0.942826
 H        -2.036118        -1.017078        -0.009515
 H        -3.566299         1.667155         0.934290
 H        -1.064001         2.563822         0.055950
 H        -0.121077         2.669352         2.614876
 H        -1.720988         3.608920         2.153930
 H        -2.883782         0.055562         3.054572
 H        -0.196738        -0.274831         2.909719
 H        -1.142083        -1.343411         1.761429
