19
Iteration:  1821charge 0 multiplicity 1
 O         0.756487         0.226058         0.159888
 C        -0.536586         0.403486         0.656870
 C        -2.002475         0.038096        -0.036525
 C        -2.489142         0.945900         1.071441
 C        -1.228661         1.860199         0.931405
 C        -1.151743         2.579043         2.259651
 O        -1.944640         1.744752         3.126219
 C        -2.088365         0.444551         2.470247
 C        -0.715412        -0.192656         2.115650
 H         0.922236        -0.747619         0.147233
 H        -2.134312         0.515535        -1.025260
 H        -2.307584        -0.970657         0.090057
 H        -3.405486         1.487256         1.118923
 H        -1.053822         2.539316         0.076443
 H        -0.123819         2.693071         2.515094
 H        -1.598945         3.605125         2.053728
 H        -2.936644        -0.046097         2.855357
 H         0.018856         0.232843         2.896966
 H        -0.714079        -1.276135         2.081448
