19
Iteration:  2004
 O         0.704949         0.348115         0.163294
 C        -0.601340         0.449279         0.709575
 C        -1.892038        -0.056229        -0.020773
 C        -2.589618         0.923186         1.065502
 C        -1.286330         1.801481         0.892583
 C        -0.995217         2.503815         2.214556
 O        -1.889580         1.771127         3.107657
 C        -2.121675         0.527938         2.445320
 C        -0.749054        -0.192136         2.135736
 H         1.034574        -0.480482         0.502079
 H        -2.086928         0.334830        -0.997105
 H        -2.171184        -1.187984         0.101138
 H        -3.666954         1.114431         0.922959
 H        -1.341700         2.451803        -0.016012
 H         0.107740         2.387957         2.418050
 H        -1.223289         3.495713         2.237307
 H        -2.790626         0.003803         3.134958
 H        -0.107147         0.256444         2.896458
 H        -0.871274        -1.254733         2.163422
