19
Iteration:  3873charge 0 multiplicity 1
 O         0.676192         0.239097         0.181336
 C        -0.564044         0.403473         0.702531
 C        -1.900683         0.075664        -0.042315
 C        -2.482708         1.006853         1.090156
 C        -1.181841         1.784631         0.874040
 C        -1.135543         2.559450         2.158764
 O        -1.858604         1.726760         3.284915
 C        -2.205663         0.490581         2.425802
 C        -0.794065        -0.222688         2.055339
 H         1.188541        -0.171040         0.807190
 H        -1.892215         0.534979        -1.058345
 H        -2.056870        -1.041545        -0.335658
 H        -3.412322         1.557451         0.851019
 H        -1.011821         2.408175        -0.097301
 H        -0.117891         2.721292         2.665030
 H        -1.711849         3.423107         1.950663
 H        -2.840303        -0.220946         2.945861
 H         0.041254        -0.020851         2.755570
 H        -0.989683        -1.309890         1.902369
