19
Iteration:   314charge 0 multiplicity 1
 O         0.681956         0.195898         0.234700
 C        -0.594982         0.446548         0.724856
 C        -1.882615         0.043076        -0.039288
 C        -2.541369         1.139603         0.962380
 C        -1.182737         1.878611         0.893783
 C        -1.048867         2.484871         2.224666
 O        -1.898728         1.659261         3.195960
 C        -2.176861         0.464249         2.413951
 C        -0.791682        -0.203439         2.033557
 H         1.239109        -0.161585         1.025416
 H        -2.019549         0.114550        -1.074724
 H        -2.224924        -1.051535         0.162216
 H        -3.498417         1.621186         0.916001
 H        -1.086690         2.504254         0.019437
 H         0.037495         2.558403         2.626095
 H        -1.368065         3.549562         2.234730
 H        -2.942410        -0.150161         2.807018
 H        -0.119278         0.117540         2.858980
 H        -0.816423        -1.317920         1.976909
