19
Iteration:  2235charge 0 multiplicity 1
 O         0.655288         0.168301         0.068303
 C        -0.571274         0.427460         0.757256
 C        -1.900552        -0.008424         0.008907
 C        -2.499783         0.948129         1.050698
 C        -1.222105         1.810546         0.917285
 C        -1.122371         2.600477         2.271230
 O        -1.958352         1.794498         3.116216
 C        -2.112743         0.503704         2.501903
 C        -0.700889        -0.231965         2.076529
 H         1.381762         0.369075         0.560215
 H        -1.935117         0.499024        -0.993828
 H        -2.205643        -1.110205         0.025966
 H        -3.474419         1.350170         0.758248
 H        -1.243845         2.394188        -0.005905
 H        -0.029381         2.601612         2.668042
 H        -1.558012         3.643267         2.268787
 H        -2.773452        -0.155879         3.054641
 H         0.138531         0.193640         2.724805
 H        -0.795082        -1.283184         1.990403
