19
Iteration:  4484
 O         0.744332         0.414472         0.262615
 C        -0.598420         0.366715         0.706968
 C        -1.911544        -0.014836        -0.106052
 C        -2.568903         1.067780         0.960323
 C        -1.240004         1.759577         0.900910
 C        -0.987965         2.389011         2.306731
 O        -1.930042         1.775338         3.213832
 C        -2.145300         0.460368         2.448261
 C        -0.809596        -0.241975         2.047872
 H         0.709678        -0.152705        -0.656704
 H        -1.985836         0.548527        -1.025060
 H        -2.371867        -1.045550         0.093328
 H        -3.572591         1.351047         0.873578
 H        -1.048913         2.612489         0.175047
 H         0.063984         2.368575         2.587589
 H        -1.057482         3.553996         2.290341
 H        -2.813220        -0.181601         3.022176
 H        -0.039044         0.324539         2.700794
 H        -0.669046        -1.343696         2.155168
