19
Iteration:  3716charge 0 multiplicity 1
 O         0.702560         0.296044         0.204847
 C        -0.579390         0.425950         0.749723
 C        -1.872095         0.037476         0.046980
 C        -2.460956         0.929414         1.109866
 C        -1.130932         1.780792         0.897641
 C        -1.135212         2.683115         2.160883
 O        -1.902519         1.732643         3.093096
 C        -2.117909         0.443888         2.444231
 C        -0.836564        -0.253344         2.121041
 H         0.624059        -0.448299        -0.538787
 H        -2.075668         0.364895        -0.952992
 H        -2.341277        -0.994592         0.125496
 H        -3.415986         1.340271         0.878880
 H        -1.220678         2.319537         0.016277
 H        -0.117109         2.846784         2.683288
 H        -1.694294         3.572835         2.095377
 H        -2.900150        -0.159347         2.942495
 H         0.024820        -0.059197         2.712151
 H        -0.975176        -1.295652         1.925572
