19
Iteration:  1916charge 0 multiplicity 1
 O         0.698327         0.297524         0.231149
 C        -0.581357         0.349164         0.671572
 C        -1.956992        -0.017732        -0.042899
 C        -2.539925         0.961476         1.055484
 C        -1.232443         1.836548         0.886069
 C        -1.100580         2.606830         2.232589
 O        -1.870992         1.761103         3.135209
 C        -2.102958         0.474285         2.463728
 C        -0.765060        -0.198964         2.049431
 H         1.093861        -0.627299         0.530945
 H        -1.920362         0.519645        -0.924238
 H        -2.349331        -1.084693        -0.080277
 H        -3.601195         1.234799         1.101772
 H        -1.098587         2.399909        -0.030468
 H        -0.014632         2.617155         2.619218
 H        -1.580184         3.583794         2.260885
 H        -2.661626        -0.168996         3.145269
 H         0.034890         0.259856         2.661061
 H        -0.684738        -1.296973         2.072314
