19
Iteration:   680
 O         0.653765         0.258610         0.163195
 C        -0.591407         0.514900         0.760689
 C        -1.886994         0.030349        -0.057941
 C        -2.515396         0.952840         1.004202
 C        -1.200632         1.967712         0.913650
 C        -0.941309         2.531728         2.278403
 O        -1.873211         1.696211         3.103755
 C        -2.194709         0.421786         2.413266
 C        -0.869012        -0.277481         2.136418
 H         1.048346        -0.360196         0.878621
 H        -1.836150         0.440313        -1.082229
 H        -2.173261        -1.039402        -0.067461
 H        -3.483063         1.355349         0.975186
 H        -1.118489         2.542577         0.003084
 H         0.124719         2.536328         2.494817
 H        -1.423357         3.661055         2.355950
 H        -3.001779        -0.001870         2.917094
 H        -0.148114        -0.252233         2.974942
 H        -0.979752        -1.348753         1.902999
