19
Iteration:  4903
 O         0.637951         0.368732        -0.011154
 C        -0.548253         0.376787         0.797507
 C        -1.804655        -0.067788         0.110693
 C        -2.523335         0.955253         0.978035
 C        -1.182605         1.832520         0.905083
 C        -0.988036         2.409664         2.239278
 O        -2.008889         1.786788         3.118538
 C        -2.229162         0.502762         2.443396
 C        -0.768462        -0.110209         2.200285
 H         0.989811        -0.624862         0.020028
 H        -1.696490         0.225649        -1.017488
 H        -2.121376        -1.206495        -0.079730
 H        -3.432103         1.548426         0.951471
 H        -1.011336         2.537232         0.161955
 H         0.009692         2.339789         2.648578
 H        -1.305236         3.389355         2.278171
 H        -2.960077        -0.052088         2.937800
 H        -0.087483         0.281881         2.961231
 H        -0.818033        -1.197728         2.335705
