19
Iteration:  1813charge 0 multiplicity 1
 O         0.717824         0.198020         0.132182
 C        -0.594128         0.457387         0.760001
 C        -1.964284         0.032338        -0.015043
 C        -2.489535         0.980655         1.027759
 C        -1.165506         1.907076         0.895205
 C        -1.182763         2.551661         2.253616
 O        -1.926694         1.744595         3.145053
 C        -2.044402         0.451959         2.437202
 C        -0.769161        -0.203309         2.127964
 H         0.909196        -0.700543         0.253939
 H        -1.960084         0.344142        -1.184880
 H        -2.211205        -1.059955        -0.053383
 H        -3.542659         1.320061         0.922697
 H        -1.262520         2.461149        -0.062492
 H        -0.173882         2.776317         2.687575
 H        -1.590408         3.502048         2.243122
 H        -2.598520        -0.213637         3.175374
 H         0.052478         0.139969         2.716581
 H        -0.658184        -1.270825         2.038196
