19
Iteration:  2013charge 0 multiplicity 1
 O         0.705195         0.334994         0.180991
 C        -0.628080         0.451592         0.722590
 C        -1.842118        -0.112780        -0.046755
 C        -2.623797         0.867434         1.013489
 C        -1.362404         1.848817         0.877568
 C        -0.987463         2.484180         2.239727
 O        -1.807509         1.794248         3.146807
 C        -2.149181         0.544879         2.496403
 C        -0.774958        -0.118261         2.097391
 H         1.029784        -0.562609         0.363634
 H        -1.819993         0.228223        -1.060122
 H        -2.221675        -1.283820        -0.024968
 H        -3.595354         1.335781         0.758901
 H        -1.324835         2.457101        -0.020564
 H         0.019718         2.314841         2.649420
 H        -1.284644         3.508927         2.267933
 H        -2.841435         0.066723         3.195251
 H        -0.053255         0.003970         2.845899
 H        -0.750116        -1.207712         1.987001
