19
Iteration:  4356
 O         0.759275         0.352223         0.226712
 C        -0.626751         0.491702         0.749110
 C        -1.852096        -0.015987        -0.024660
 C        -2.518335         0.957387         1.011584
 C        -1.306014         1.815333         0.916460
 C        -0.916376         2.384803         2.216673
 O        -1.883842         1.690497         3.193503
 C        -2.263952         0.532785         2.444056
 C        -0.849055        -0.162243         2.061046
 H         0.776054         0.583035        -0.712358
 H        -1.962171         0.337367        -1.048686
 H        -2.037246        -1.049828        -0.034687
 H        -3.469340         1.373917         0.645909
 H        -1.235457         2.389876        -0.033480
 H         0.093768         2.105135         2.536138
 H        -1.150513         3.389896         2.369633
 H        -2.826003        -0.137547         3.160573
 H        -0.135821         0.041101         2.864711
 H        -0.963951        -1.249981         2.059192
