19
Iteration:  3976
 O         0.750857         0.176254         0.184872
 C        -0.540096         0.415984         0.715899
 C        -1.771503         0.015146        -0.047974
 C        -2.621533         1.049347         0.973701
 C        -1.263515         1.846292         0.954537
 C        -1.090369         2.531702         2.273335
 O        -1.888375         1.678583         3.254584
 C        -2.168517         0.552147         2.415124
 C        -0.843844        -0.184634         2.081214
 H         0.608432        -0.007703        -0.850011
 H        -1.729909         0.380386        -1.080995
 H        -1.924436        -0.995771         0.059394
 H        -3.645004         1.402259         0.816678
 H        -1.228754         2.463456         0.147543
 H        -0.022102         2.652417         2.488798
 H        -1.456325         3.603681         2.370625
 H        -2.808641        -0.073091         3.076226
 H         0.062522        -0.049690         2.729459
 H        -0.956530        -1.258411         1.844293
