19
Iteration:  2698
 O         0.726874         0.343652         0.146789
 C        -0.601566         0.462942         0.738042
 C        -1.874492        -0.098936        -0.001645
 C        -2.563444         0.906914         1.021400
 C        -1.329380         1.787280         0.839476
 C        -1.003772         2.516695         2.209258
 O        -1.899374         1.727140         3.190964
 C        -2.187343         0.522285         2.466782
 C        -0.717401        -0.094088         2.145916
 H         1.014291        -0.598555        -0.079848
 H        -1.734660         0.178405        -1.012956
 H        -2.378454        -1.104055         0.078283
 H        -3.558944         1.426786         0.714667
 H        -1.277409         2.345104        -0.040904
 H         0.042733         2.371349         2.446012
 H        -1.319428         3.683480         2.308009
 H        -2.790823        -0.146965         3.173811
 H         0.001622         0.404187         2.864776
 H        -0.806279        -1.214172         2.128294
