19
Iteration:  4866
 O         0.727149         0.095206         0.116471
 C        -0.584320         0.353978         0.684300
 C        -1.870140        -0.064281         0.008438
 C        -2.495142         1.054941         1.027264
 C        -1.261914         1.910932         0.916478
 C        -1.141819         2.575340         2.264931
 O        -1.920226         1.728372         3.193409
 C        -2.138532         0.497896         2.468240
 C        -0.763096        -0.151969         2.065992
 H         1.195209         0.981565         0.236867
 H        -1.870578         0.388046        -0.961723
 H        -2.050545        -1.124053         0.100673
 H        -3.503977         1.446703         0.834595
 H        -1.091181         2.630714         0.022903
 H        -0.107409         2.666913         2.719328
 H        -1.466967         3.641769         2.035577
 H        -2.921041        -0.167590         3.013014
 H        -0.036576         0.006547         2.868782
 H        -0.895010        -1.271288         1.957009
