19
Iteration:  2052charge 0 multiplicity 1
 O         0.706512         0.396145         0.163317
 C        -0.562970         0.385461         0.796875
 C        -1.986220        -0.064816         0.094138
 C        -2.543088         0.979353         1.019596
 C        -1.203439         1.786368         0.870691
 C        -1.099228         2.592294         2.191858
 O        -1.804071         1.737840         3.048507
 C        -2.171752         0.458756         2.451121
 C        -0.774514        -0.262703         2.163959
 H         1.081816        -0.577845        -0.068924
 H        -1.859167         0.382381        -0.944806
 H        -2.251225        -1.063633         0.103481
 H        -3.442147         1.569833         1.075663
 H        -1.173232         2.399029        -0.021492
 H        -0.044074         2.837390         2.430750
 H        -1.696517         3.594374         2.088097
 H        -2.939702        -0.041081         3.072147
 H         0.036979         0.115579         2.867065
 H        -0.949243        -1.343767         1.963167
