19
Iteration:   836
 O         0.719234         0.210638         0.063305
 C        -0.529610         0.478978         0.765715
 C        -1.931463         0.067856        -0.009003
 C        -2.556703         0.973717         0.910222
 C        -1.167169         1.818870         0.913487
 C        -1.052743         2.496429         2.299721
 O        -1.874977         1.715584         3.221886
 C        -2.169699         0.533485         2.440059
 C        -0.877858        -0.215283         2.103755
 H         1.340734        -0.086176         0.799345
 H        -1.952402         0.445653        -0.974963
 H        -2.091699        -1.031578         0.070562
 H        -3.606133         1.443304         0.774512
 H        -0.939465         2.424005        -0.020072
 H        -0.084736         2.443020         2.686110
 H        -1.562207         3.560575         2.247511
 H        -2.910759        -0.033615         3.059162
 H        -0.147977        -0.060056         2.883119
 H        -1.025202        -1.263593         1.832898
