19
Iteration:  4917
 O         0.721350         0.353468         0.109194
 C        -0.563024         0.405180         0.691811
 C        -1.850067        -0.083870        -0.016483
 C        -2.485950         0.974214         1.006654
 C        -1.214402         1.761753         0.892155
 C        -1.056180         2.478293         2.289179
 O        -1.970261         1.789376         3.136894
 C        -2.173531         0.563482         2.471290
 C        -0.806813        -0.195951         2.228101
 H         0.644347        -0.289394        -0.544717
 H        -1.979038         0.257526        -1.035963
 H        -2.130790        -1.099978         0.282988
 H        -3.501743         1.286911         0.665660
 H        -1.209253         2.356622        -0.081044
 H        -0.052736         2.301151         2.643320
 H        -1.202313         3.599443         2.180026
 H        -2.959018        -0.009817         3.057600
 H         0.007248         0.258901         2.898175
 H        -0.729620        -1.268004         2.259449
