19
Iteration:  1464charge 0 multiplicity 1
 O         0.727969         0.241281         0.151147
 C        -0.598062         0.462955         0.619499
 C        -1.931724         0.011930        -0.074369
 C        -2.522794         0.986538         0.956558
 C        -1.187010         1.793028         0.922485
 C        -1.080537         2.471408         2.335771
 O        -1.895427         1.748928         3.214776
 C        -2.183171         0.487406         2.480452
 C        -0.810096        -0.185145         2.069382
 H         1.230173         0.138914         0.905685
 H        -2.058402         0.353881        -1.118205
 H        -2.042126        -1.044370        -0.025587
 H        -3.517731         1.334932         0.988091
 H        -1.195275         2.594347         0.148318
 H        -0.007804         2.436772         2.548413
 H        -1.258141         3.623543         2.303181
 H        -2.952665        -0.094246         2.896393
 H        -0.068661         0.242916         2.802036
 H        -0.587838        -1.260200         1.988913
