19
Iteration:  3131
 O         0.718445         0.389971         0.164386
 C        -0.559444         0.394014         0.732021
 C        -1.963787        -0.119176        -0.056048
 C        -2.563081         0.888633         1.007679
 C        -1.246503         1.794121         0.915327
 C        -1.065157         2.569256         2.190892
 O        -1.874053         1.843893         3.201668
 C        -2.171901         0.520442         2.451981
 C        -0.752855        -0.288056         2.097279
 H         1.341600        -0.102730         0.690521
 H        -1.804230         0.392144        -1.027620
 H        -2.335067        -1.221211        -0.017820
 H        -3.475677         1.448397         0.697182
 H        -1.262500         2.370641         0.005955
 H         0.010152         2.599046         2.511284
 H        -1.431431         3.635410         2.269965
 H        -2.972253         0.060252         3.125988
 H         0.193077        -0.073460         2.702477
 H        -0.799010        -1.445573         2.127437
