19
Iteration:  1009
 O         0.696475         0.339045         0.107539
 C        -0.578527         0.384000         0.757098
 C        -1.899547         0.007049        -0.034581
 C        -2.446221         1.054285         1.025162
 C        -1.170602         1.849837         0.864517
 C        -1.053499         2.540188         2.348380
 O        -1.890272         1.680021         3.092906
 C        -2.194972         0.479552         2.408912
 C        -0.863086        -0.258867         2.211303
 H         0.977956        -0.444262        -0.197902
 H        -1.950914         0.347194        -1.055277
 H        -2.261108        -1.154205        -0.028213
 H        -3.391602         1.714199         0.963420
 H        -1.208418         2.484808        -0.078229
 H         0.058845         2.636796         2.630566
 H        -1.397434         3.529840         2.399813
 H        -3.008359         0.024229         2.983157
 H        -0.184655        -0.188258         3.070188
 H        -0.948976        -1.414693         2.146973
