19
Iteration:  2405
 O         0.610996         0.177727         0.091489
 C        -0.599215         0.445020         0.708846
 C        -1.786966        -0.084755        -0.057450
 C        -2.557986         0.860275         1.026111
 C        -1.343253         1.868853         0.899198
 C        -1.054981         2.493992         2.326170
 O        -1.921194         1.801301         3.142217
 C        -2.136959         0.562266         2.479310
 C        -0.721853        -0.074375         2.133207
 H         1.336587         0.474347         0.524252
 H        -1.585524         0.294747        -1.020980
 H        -1.812552        -1.190572        -0.301693
 H        -3.635697         1.230976         1.016456
 H        -1.295399         2.392953        -0.058092
 H         0.077325         2.343746         2.464871
 H        -1.223910         3.517273         2.330617
 H        -2.691615        -0.094199         3.182085
 H         0.036209         0.232609         2.768454
 H        -0.734889        -1.212186         2.179877
