19
Iteration:  3356
 O         0.621183         0.222750         0.078859
 C        -0.552229         0.407159         0.735033
 C        -1.899058        -0.129715         0.100696
 C        -2.504067         0.944784         1.006429
 C        -1.175356         1.823615         0.872374
 C        -1.128934         2.580198         2.305032
 O        -1.941722         1.765133         3.120928
 C        -2.098782         0.535799         2.385971
 C        -0.731898        -0.154738         2.080150
 H         1.404157         0.476310         0.727554
 H        -1.991663         0.151872        -0.972035
 H        -2.248237        -1.117132         0.345420
 H        -3.579557         1.197686         0.782621
 H        -1.010503         2.507372         0.046603
 H        -0.098087         2.683744         2.659244
 H        -1.462044         3.703159         2.287582
 H        -2.839455        -0.034793         3.020183
 H        -0.122375         0.322415         2.879394
 H        -0.738909        -1.276802         2.201671
