19
Iteration:  4049charge 0 multiplicity 1
 O         0.753988         0.214122         0.196852
 C        -0.578154         0.509314         0.716425
 C        -1.910935        -0.033381        -0.102884
 C        -2.643722         0.868071         0.956493
 C        -1.227091         1.855045         0.989605
 C        -0.969944         2.554568         2.283460
 O        -1.864795         1.721839         3.168167
 C        -2.184865         0.514435         2.442872
 C        -0.835271        -0.234787         2.083837
 H         0.973216         1.112657        -0.171237
 H        -1.841937         0.392040        -1.146278
 H        -2.048078        -1.154448         0.119162
 H        -3.605064         1.281533         0.815935
 H        -1.019336         2.463677         0.037979
 H         0.058617         2.551382         2.801788
 H        -1.224187         3.580241         2.219706
 H        -2.999251         0.125974         3.070887
 H        -0.150813         0.047480         2.942747
 H        -1.064894        -1.274273         2.045560
