19
Iteration:  3462charge 0 multiplicity 1
 O         0.617684         0.226196         0.167287
 C        -0.612554         0.461528         0.793728
 C        -1.772313        -0.007733        -0.028553
 C        -2.467669         0.931541         1.024461
 C        -1.274823         1.811016         0.828666
 C        -1.231210         2.600131         2.182554
 O        -1.815725         1.783239         3.143051
 C        -2.076649         0.456260         2.517080
 C        -0.791454        -0.172926         2.109837
 H         1.055565        -0.518219         0.667724
 H        -1.792930         0.335161        -1.143503
 H        -1.928251        -1.120795         0.053524
 H        -3.490412         1.373594         0.832994
 H        -1.294409         2.358350        -0.055539
 H        -0.156247         2.844254         2.398009
 H        -1.796585         3.446278         2.143017
 H        -2.802540        -0.047333         3.170027
 H         0.070395         0.011973         2.805815
 H        -0.870992        -1.278005         2.041429
