19
Iteration:   585
 O         0.625498         0.081862         0.008785
 C        -0.562770         0.385955         0.662729
 C        -1.780375         0.051420        -0.056870
 C        -2.487653         0.974305         0.968280
 C        -1.180620         1.866244         1.026138
 C        -1.109064         2.493129         2.383885
 O        -1.946142         1.750606         3.192819
 C        -2.142003         0.543830         2.415811
 C        -0.870098        -0.089384         2.107056
 H         1.427098         0.341389         0.619087
 H        -1.728697         0.531815        -0.985946
 H        -2.161715        -1.026912        -0.096839
 H        -3.530616         1.279306         0.715136
 H        -0.870482         2.501284         0.175486
 H        -0.026940         2.468153         2.902391
 H        -1.440984         3.471957         2.467892
 H        -2.813017        -0.090263         2.971591
 H        -0.069143         0.194553         2.765575
 H        -0.966951        -1.192911         2.160710
