19
Iteration:  1210
 O         0.636391         0.297368        -0.022021
 C        -0.598190         0.342486         0.716205
 C        -1.832491         0.023829         0.048796
 C        -2.478031         1.039972         0.949066
 C        -1.102036         1.822971         0.942642
 C        -1.092348         2.437349         2.308678
 O        -1.940652         1.751736         3.219682
 C        -2.225918         0.553176         2.428715
 C        -0.819107        -0.279108         2.136819
 H         1.409593         0.368293         0.716076
 H        -1.788036         0.333581        -1.117235
 H        -2.053701        -1.046068         0.105295
 H        -3.433709         1.563167         0.735501
 H        -1.037675         2.532705         0.087054
 H        -0.005908         2.442972         2.674807
 H        -1.427278         3.480633         2.279328
 H        -3.065367        -0.085255         2.841597
 H        -0.080288         0.195950         2.870974
 H        -0.773978        -1.352364         2.279569
