19
Iteration:   133
 O         0.735327         0.060031         0.161206
 C        -0.536742         0.436591         0.678901
 C        -1.780471         0.040728        -0.061482
 C        -2.493326         1.044550         0.935610
 C        -1.258380         1.986805         0.859008
 C        -1.103836         2.457205         2.372167
 O        -1.946992         1.663754         3.280744
 C        -2.177817         0.578173         2.405213
 C        -0.850715        -0.103789         2.134905
 H         0.645670        -0.190397        -0.692596
 H        -1.902125         0.333325        -1.123675
 H        -1.996682        -0.976458        -0.006321
 H        -3.522596         1.327492         0.870119
 H        -1.081737         2.670439         0.042378
 H        -0.052314         2.244568         2.542240
 H        -1.150946         3.601617         2.552385
 H        -2.915808        -0.152955         2.833725
 H        -0.114410        -0.052012         2.902007
 H        -1.001696        -1.161245         2.136865
