19
Iteration:  1760charge 0 multiplicity 1
 O         0.680693         0.332414         0.102742
 C        -0.607505         0.383005         0.740642
 C        -1.937307        -0.031938         0.029514
 C        -2.507323         0.981249         1.041982
 C        -1.213118         1.794020         0.920362
 C        -1.040485         2.507691         2.208401
 O        -1.902563         1.719662         3.142749
 C        -2.119990         0.560106         2.435648
 C        -0.815034        -0.234080         2.136326
 H         1.306132         0.563909         0.716031
 H        -1.935242         0.342830        -1.044172
 H        -2.043220        -1.140561         0.057145
 H        -3.499538         1.452716         0.781224
 H        -0.954312         2.328779        -0.010459
 H         0.052049         2.602005         2.619986
 H        -1.555803         3.495373         2.183215
 H        -2.968246        -0.008084         2.980585
 H         0.027727        -0.149438         2.761050
 H        -0.889812        -1.332006         1.884140
