19
Iteration:  4228
 O         0.745876         0.301106         0.186321
 C        -0.562858         0.387399         0.712537
 C        -1.843443        -0.037780        -0.005603
 C        -2.620529         0.987680         0.964428
 C        -1.259789         1.813557         0.913870
 C        -0.972466         2.428894         2.304117
 O        -1.933235         1.761571         3.228193
 C        -2.183587         0.549105         2.363722
 C        -0.799923        -0.225229         2.098423
 H         0.689883         0.694280        -0.664774
 H        -1.935350         0.492081        -1.075788
 H        -2.010845        -1.136808         0.064045
 H        -3.670022         1.468292         0.930410
 H        -0.993709         2.501147         0.198620
 H         0.126072         2.384029         2.653652
 H        -1.231837         3.554029         2.401260
 H        -3.023234        -0.029903         2.871837
 H        -0.033964         0.060961         2.766270
 H        -0.903203        -1.328485         2.023297
