19
Iteration:  4231charge 0 multiplicity 1
 O         0.770605         0.296021         0.185802
 C        -0.531067         0.392325         0.694529
 C        -1.877799        -0.037227        -0.011852
 C        -2.619004         1.008459         0.995875
 C        -1.248933         1.806374         0.913653
 C        -0.979033         2.457941         2.309578
 O        -1.946998         1.770002         3.239809
 C        -2.187472         0.517537         2.363867
 C        -0.812542        -0.237692         2.071373
 H         0.754903         0.573641        -0.732130
 H        -1.863488         0.399498        -0.987134
 H        -2.050502        -1.128681         0.050780
 H        -3.637318         1.474329         0.958865
 H        -1.042605         2.569006         0.069595
 H         0.100395         2.469878         2.587773
 H        -1.263563         3.409088         2.473629
 H        -2.995968        -0.014054         2.851031
 H        -0.084650         0.175858         2.789908
 H        -0.919546        -1.370787         2.102795
