19
Iteration:  3163
 O         0.616128         0.192858         0.103722
 C        -0.520753         0.485047         0.760593
 C        -1.860953        -0.038023         0.045746
 C        -2.496164         0.892439         0.983328
 C        -1.237172         1.895604         0.864478
 C        -1.183117         2.645389         2.222237
 O        -1.827884         1.678106         3.159541
 C        -2.135124         0.527401         2.392834
 C        -0.781165        -0.211079         2.197170
 H         1.414984         0.090974         0.655456
 H        -1.701331         0.311198        -0.996673
 H        -2.102357        -1.154468        -0.117215
 H        -3.457981         1.447673         0.881090
 H        -1.295351         2.570926        -0.053982
 H        -0.153974         2.826136         2.659970
 H        -1.806037         3.523139         2.221600
 H        -2.929972        -0.025594         2.994301
 H         0.049415        -0.055212         2.920069
 H        -0.951738        -1.325223         2.036004
