19
Iteration:  3305charge 0 multiplicity 1
 O         0.717116         0.214846         0.118954
 C        -0.570734         0.424554         0.681991
 C        -1.777780        -0.031629        -0.046677
 C        -2.561830         0.915670         1.098678
 C        -1.309598         1.782369         0.929020
 C        -1.159880         2.670550         2.180383
 O        -1.801757         1.761378         3.138319
 C        -2.170516         0.490585         2.518653
 C        -0.793289        -0.200670         2.105498
 H         1.280287        -0.272449         0.822721
 H        -1.902179         0.425710        -1.005169
 H        -2.005638        -1.121921        -0.112674
 H        -3.524500         1.436351         1.026268
 H        -1.387606         2.549490        -0.024967
 H        -0.102111         2.956290         2.484661
 H        -1.774822         3.519501         2.027472
 H        -2.958078         0.007164         3.157336
 H         0.011827         0.003523         2.766017
 H        -1.049989        -1.232945         2.140205
