19
Iteration:  1108
 O         0.677965         0.293303         0.121890
 C        -0.514892         0.445132         0.781304
 C        -1.818993         0.034593        -0.009528
 C        -2.610427         1.030159         0.961308
 C        -1.186201         1.897403         0.870748
 C        -1.118719         2.538080         2.267965
 O        -1.743842         1.686798         3.236287
 C        -2.201112         0.481872         2.363859
 C        -0.883960        -0.305344         2.106462
 H         1.231742        -0.171718         0.655137
 H        -1.838012         0.391086        -1.019078
 H        -2.235250        -1.068367         0.091093
 H        -3.640834         1.359021         0.928083
 H        -1.070912         2.470339        -0.026096
 H        -0.116174         2.676962         2.657084
 H        -1.600356         3.583731         2.079467
 H        -2.897362        -0.185642         2.874266
 H        -0.353088        -0.314808         3.088134
 H        -1.301489        -1.371123         1.846711
