19
Iteration:   577charge 0 multiplicity 1
 O         0.646864         0.105854         0.005913
 C        -0.545682         0.336641         0.725386
 C        -1.853721         0.087533        -0.031865
 C        -2.545965         1.044904         0.959276
 C        -1.151219         1.866637         1.025194
 C        -1.078624         2.511234         2.343541
 O        -2.007951         1.737206         3.191180
 C        -2.137292         0.498417         2.402906
 C        -0.769984        -0.147988         2.115784
 H         1.362005         0.336822         0.643427
 H        -1.710470         0.496852        -1.054556
 H        -2.221255        -0.968625        -0.065491
 H        -3.641568         1.373623         0.774528
 H        -0.856437         2.554353         0.192031
 H        -0.029619         2.374149         2.762584
 H        -1.333947         3.660527         2.181289
 H        -2.952023        -0.168694         2.897844
 H        -0.036430         0.243261         2.858309
 H        -0.716680        -1.256954         2.181168
