19
Iteration:   283charge 0 multiplicity 1
 O         0.640100         0.146692        -0.006545
 C        -0.521812         0.383916         0.791059
 C        -1.760008         0.040243        -0.059966
 C        -2.565312         1.016667         0.906367
 C        -1.190116         1.864630         0.988621
 C        -1.066347         2.493554         2.328930
 O        -1.965399         1.779836         3.203902
 C        -2.173525         0.557189         2.409651
 C        -0.801110        -0.210186         2.163678
 H         1.423657         0.044639         0.515684
 H        -1.760897         0.471939        -1.052017
 H        -2.098601        -1.036979         0.046917
 H        -3.596628         1.241127         0.675419
 H        -0.990364         2.557232         0.186386
 H        -0.041973         2.384860         2.760138
 H        -1.369269         3.442563         2.280641
 H        -3.001276         0.000429         2.861718
 H        -0.220357         0.090245         3.040051
 H        -1.099518        -1.263584         2.193594
