19
Iteration:  3216charge 0 multiplicity 1
 O         0.621947         0.165915         0.068841
 C        -0.533907         0.476000         0.714997
 C        -1.855319         0.003859         0.046558
 C        -2.500431         0.939276         1.073523
 C        -1.200916         1.870752         0.919619
 C        -1.112171         2.566083         2.223252
 O        -2.006479         1.808478         3.085278
 C        -2.117651         0.421581         2.458794
 C        -0.734431        -0.245436         2.185860
 H         1.440334         0.646449         0.443208
 H        -1.863771         0.360608        -0.999291
 H        -2.140665        -1.066901         0.097995
 H        -3.524492         1.311530         0.812311
 H        -1.072057         2.489290        -0.146884
 H        -0.020354         2.567963         2.602511
 H        -1.404831         3.600570         2.243699
 H        -2.820667        -0.191280         3.091955
 H         0.027029         0.137042         2.803267
 H        -0.714415        -1.325367         2.122830
