19
Iteration:  2352
 O         0.612256         0.255085         0.075454
 C        -0.609693         0.408373         0.741813
 C        -1.866144        -0.049496         0.076741
 C        -2.481268         0.976553         0.919797
 C        -1.205498         1.884987         0.932406
 C        -1.222602         2.636202         2.199455
 O        -1.766683         1.692294         3.194578
 C        -2.097312         0.496418         2.417607
 C        -0.791992        -0.246015         2.180380
 H         1.285519         0.255615         0.664655
 H        -1.871337         0.146124        -0.971783
 H        -2.059979        -1.062244         0.387643
 H        -3.609681         1.240541         0.694117
 H        -1.034259         2.399470        -0.119081
 H        -0.201388         2.910109         2.515896
 H        -1.822049         3.528637         1.955618
 H        -2.842478        -0.111353         2.971262
 H         0.004555         0.113971         2.737428
 H        -0.977550        -1.354743         2.235825
