19
Iteration:    58
 O         0.651824         0.362755         0.193778
 C        -0.618790         0.410360         0.760101
 C        -1.788165        -0.010353         0.051531
 C        -2.544521         1.087126         1.000627
 C        -1.203697         1.892940         0.907018
 C        -0.977483         2.543196         2.285962
 O        -1.782677         1.647699         3.175145
 C        -2.234351         0.526230         2.304067
 C        -0.983293        -0.353126         2.047132
 H         1.210173        -0.470399         0.565532
 H        -1.706127         0.249874        -1.081976
 H        -1.986085        -1.059175         0.178182
 H        -3.480744         1.486950         0.703902
 H        -0.950097         2.437800         0.002772
 H         0.136532         2.513762         2.458901
 H        -1.296489         3.504167         2.408996
 H        -3.103831        -0.013267         2.758357
 H        -0.338785         0.023455         2.849094
 H        -1.084274        -1.481360         1.989832
