19
Iteration:  2821
 O         0.752027         0.316160         0.126816
 C        -0.569764         0.427595         0.679515
 C        -1.917070        -0.023263        -0.007820
 C        -2.533534         0.910220         1.057332
 C        -1.293297         1.772073         0.889647
 C        -1.060092         2.424467         2.201665
 O        -1.899017         1.815549         3.129295
 C        -2.113524         0.455781         2.440477
 C        -0.789723        -0.140407         2.151977
 H         1.356960         0.306266         1.041258
 H        -2.170628         0.341212        -1.040680
 H        -2.337830        -1.080969         0.047779
 H        -3.518491         1.421642         1.077505
 H        -1.343618         2.525325         0.026872
 H        -0.098536         2.429249         2.623372
 H        -1.233427         3.646150         2.183643
 H        -2.798470        -0.041286         3.000433
 H        -0.039647         0.269131         2.792991
 H        -1.033291        -1.333414         2.199603
