19
Iteration:   232
 O         0.667796         0.122813         0.212850
 C        -0.580366         0.421628         0.838006
 C        -1.859522         0.023953        -0.002449
 C        -2.575721         1.139637         0.873243
 C        -1.242316         1.884065         0.883803
 C        -1.045591         2.537742         2.269767
 O        -1.854074         1.665535         3.147687
 C        -2.168765         0.470333         2.412135
 C        -0.774707        -0.249132         2.082482
 H         1.183024         0.890023         0.301080
 H        -1.727026         0.349321        -1.091824
 H        -2.222313        -0.949800         0.113182
 H        -3.552212         1.701719         0.888335
 H        -1.073543         2.453284        -0.056205
 H        -0.014996         2.428847         2.577753
 H        -1.507471         3.681561         2.422176
 H        -3.099952        -0.045293         2.844795
 H        -0.145618        -0.022912         2.970278
 H        -0.790928        -1.340525         1.990637
