19
Iteration:  3078
 O         0.701634         0.340063         0.120409
 C        -0.539203         0.420124         0.708955
 C        -1.859148        -0.105749         0.028320
 C        -2.544721         0.888444         0.987253
 C        -1.286294         1.841661         0.878938
 C        -1.063578         2.551387         2.270121
 O        -1.915051         1.779372         3.156222
 C        -2.095968         0.539417         2.414910
 C        -0.802832        -0.185761         2.198761
 H         0.876033        -0.499521        -0.373290
 H        -1.858012         0.168483        -1.018157
 H        -2.108673        -1.182169         0.160236
 H        -3.582606         1.271327         0.818275
 H        -1.025251         2.399429         0.082973
 H        -0.050562         2.595111         2.587272
 H        -1.460995         3.646187         2.408168
 H        -2.930061         0.009490         2.985860
 H         0.021980         0.088984         2.952588
 H        -1.060371        -1.285537         2.135804
