19
Iteration:  4147charge 0 multiplicity 1
 O         0.693664         0.138796         0.221351
 C        -0.548635         0.432501         0.758632
 C        -1.791295         0.090369        -0.014052
 C        -2.528653         0.986158         1.016964
 C        -1.272350         1.896838         0.973272
 C        -1.176712         2.635878         2.243765
 O        -1.777308         1.652180         3.133732
 C        -2.190359         0.523644         2.386166
 C        -0.812017        -0.280819         2.097931
 H         0.666251         0.099383        -0.752589
 H        -1.868235         0.525544        -1.037005
 H        -2.064219        -0.993326        -0.151360
 H        -3.512746         1.317738         0.873647
 H        -1.179507         2.613100         0.109485
 H        -0.133692         2.795781         2.525991
 H        -1.899259         3.545691         2.422121
 H        -2.902488        -0.106207         2.863252
 H        -0.036770        -0.008402         2.885464
 H        -0.779245        -1.356193         2.048294
