19
Iteration:  3953charge 0 multiplicity 1
 O         0.683141         0.242399         0.192107
 C        -0.564547         0.424047         0.740807
 C        -1.974719         0.003802        -0.055865
 C        -2.433132         1.007468         1.064928
 C        -1.166734         1.892405         0.908973
 C        -1.056152         2.500183         2.306302
 O        -1.980189         1.725979         3.069484
 C        -2.113038         0.459123         2.401492
 C        -0.800735        -0.242631         2.164943
 H         0.727443         0.468281        -0.676684
 H        -1.948040         0.566118        -1.005952
 H        -2.301349        -0.990564        -0.092186
 H        -3.451137         1.347520         1.079834
 H        -1.119575         2.448598         0.075090
 H        -0.040757         2.356226         2.760657
 H        -1.164121         3.598481         2.410362
 H        -2.842258        -0.175844         2.940835
 H        -0.004813         0.182613         2.868963
 H        -0.691730        -1.322372         2.089397
