19
Iteration:  2909
 O         0.655889         0.148723         0.150370
 C        -0.590532         0.444260         0.719320
 C        -1.841528         0.009003         0.014262
 C        -2.580874         0.947004         1.036274
 C        -1.286219         1.857476         0.890414
 C        -1.174637         2.592969         2.250479
 O        -1.860612         1.674602         3.105070
 C        -2.058788         0.531136         2.470230
 C        -0.682052        -0.146269         2.103041
 H         1.280009        -0.107218         0.894600
 H        -2.037588         0.443720        -1.037563
 H        -2.267399        -1.013949        -0.208733
 H        -3.524136         1.449861         0.920999
 H        -1.124297         2.535436        -0.055048
 H        -0.213710         2.644412         2.786386
 H        -1.563024         3.623632         2.090207
 H        -2.774211        -0.035343         2.911408
 H         0.053820         0.282930         2.714074
 H        -0.873278        -1.320104         2.098331
