19
Iteration:  4264
 O         0.671702         0.157081         0.247599
 C        -0.560538         0.466200         0.744612
 C        -1.882744         0.079394        -0.018252
 C        -2.542374         1.036139         1.012520
 C        -1.194445         1.897586         0.919274
 C        -1.170585         2.552466         2.293917
 O        -1.897226         1.663775         3.175861
 C        -2.079428         0.479788         2.368859
 C        -0.729350        -0.235442         2.061097
 H         0.655472         0.018536        -0.652308
 H        -1.885113         0.432740        -1.048299
 H        -2.104976        -1.012447        -0.191160
 H        -3.587072         1.391923         1.010115
 H        -0.948315         2.596874         0.013638
 H        -0.115766         2.834643         2.602624
 H        -1.795578         3.369817         2.212609
 H        -2.845227        -0.139065         2.811438
 H         0.081338        -0.064571         2.827966
 H        -0.825786        -1.369108         2.076351
