19
Iteration:  2776
 O         0.675480         0.325026         0.090454
 C        -0.547082         0.448030         0.767863
 C        -1.906490        -0.092553         0.038901
 C        -2.478890         0.992601         0.986203
 C        -1.229466         1.831541         0.879333
 C        -1.141790         2.603051         2.195644
 O        -1.810856         1.683306         3.161308
 C        -2.145127         0.472694         2.456025
 C        -0.837160        -0.168816         2.199867
 H         1.227215        -0.575519         0.089032
 H        -1.822889         0.207447        -0.987511
 H        -2.077153        -1.217035         0.113436
 H        -3.525296         1.297386         0.621685
 H        -1.279185         2.459252        -0.019198
 H        -0.127817         2.824529         2.467563
 H        -1.701916         3.647851         2.223935
 H        -2.902229        -0.081793         2.988929
 H        -0.227335         0.110668         3.059635
 H        -0.857473        -1.330228         2.141100
