19
Iteration:  4662charge 0 multiplicity 1
 O         0.731041         0.348280         0.343876
 C        -0.650713         0.477878         0.686763
 C        -1.850559        -0.037755        -0.117060
 C        -2.529151         0.945367         1.006659
 C        -1.326890         1.912851         0.925929
 C        -0.996137         2.429045         2.285079
 O        -1.739625         1.713377         3.210399
 C        -2.185729         0.492253         2.390460
 C        -0.902077        -0.210275         2.056586
 H         0.800734        -0.061120        -0.642852
 H        -2.006281         0.493816        -1.102987
 H        -2.110400        -1.126515        -0.202247
 H        -3.599154         1.091388         0.776227
 H        -1.285560         2.539071         0.089622
 H         0.110833         2.358754         2.341370
 H        -1.162145         3.633546         2.444437
 H        -2.907535        -0.062903         3.006831
 H        -0.170162        -0.137518         2.838313
 H        -1.127068        -1.312687         1.796770
