19
Iteration:  3096
 O         0.738662         0.392458         0.173924
 C        -0.592699         0.478368         0.807652
 C        -1.869065        -0.081797         0.117185
 C        -2.588925         0.971300         1.009142
 C        -1.256063         1.855385         0.846295
 C        -1.028056         2.461728         2.167669
 O        -1.867780         1.727362         3.103677
 C        -2.245798         0.487203         2.451552
 C        -0.729034        -0.189578         2.124119
 H         0.895966        -0.591399         0.103935
 H        -1.933791         0.100522        -1.013478
 H        -2.191056        -1.174092         0.183652
 H        -3.547844         1.388079         0.706936
 H        -1.465218         2.475471        -0.135473
 H         0.103921         2.247882         2.327401
 H        -1.228664         3.488803         2.261928
 H        -3.014180        -0.101501         2.958436
 H        -0.095028         0.278001         2.865773
 H        -0.635865        -1.300355         2.032006
