19
Iteration:  2761charge 0 multiplicity 1
 O         0.747933         0.381560         0.076878
 C        -0.558047         0.358535         0.729566
 C        -1.887175        -0.083424         0.071891
 C        -2.529495         0.943722         1.020577
 C        -1.135823         1.839635         0.853303
 C        -1.200812         2.597840         2.191029
 O        -1.813116         1.676803         3.173558
 C        -2.223355         0.552897         2.420559
 C        -0.799098        -0.221629         2.200910
 H         0.792758        -0.591599        -0.077335
 H        -2.083276         0.272390        -0.945002
 H        -2.299866        -1.048115         0.314136
 H        -3.428990         1.585271         1.012842
 H        -0.934738         2.350787        -0.080000
 H        -0.282363         2.985270         2.719672
 H        -1.826585         3.340007         2.001765
 H        -3.059148        -0.016643         3.043433
 H         0.027713         0.087158         2.897327
 H        -0.744172        -1.236768         2.261809
