19
Iteration:  3438charge 0 multiplicity 1
 O         0.783132         0.266495         0.074346
 C        -0.570285         0.351720         0.735695
 C        -1.906024        -0.086329         0.095639
 C        -2.558531         0.956764         0.985635
 C        -1.252587         1.846281         0.885696
 C        -1.217353         2.665060         2.207049
 O        -1.777081         1.713523         3.200106
 C        -2.157491         0.550142         2.366365
 C        -0.783568        -0.220547         2.158831
 H         1.357407        -0.052390         0.928617
 H        -2.054902         0.252435        -0.927958
 H        -2.150117        -1.151404         0.161791
 H        -3.576621         1.120911         0.682424
 H        -1.201295         2.580614        -0.036673
 H        -0.157374         2.920207         2.392421
 H        -1.853252         3.508608         2.183465
 H        -2.976478         0.056924         2.823490
 H        -0.079161         0.087895         2.904614
 H        -0.942618        -1.252283         2.285909
