19
Iteration:  2934charge 0 multiplicity 1
 O         0.696551         0.304956         0.092102
 C        -0.559118         0.482713         0.718406
 C        -1.823951        -0.104829        -0.002744
 C        -2.542042         0.948120         0.992556
 C        -1.329535         1.868651         0.875665
 C        -1.037530         2.529784         2.203458
 O        -1.846225         1.738368         3.221107
 C        -2.176885         0.505977         2.427747
 C        -0.789561        -0.209550         2.166710
 H         1.159061        -0.286119         0.602085
 H        -2.105297        -0.053491        -1.073813
 H        -2.112636        -1.134234         0.204910
 H        -3.514860         1.418612         0.954591
 H        -1.205214         2.562452         0.088215
 H        -0.007961         2.515457         2.434753
 H        -1.370374         3.681449         2.218035
 H        -3.063126        -0.016791         2.859176
 H        -0.346541         0.234068         3.069570
 H        -0.826453        -1.351593         2.058253
