19
Iteration:  4816charge 0 multiplicity 1
 O         0.669456         0.360524         0.247899
 C        -0.566829         0.391626         0.812546
 C        -1.835779         0.045870         0.018027
 C        -2.573408         0.965211         0.947658
 C        -1.276800         1.861307         0.848219
 C        -1.112881         2.614999         2.203408
 O        -1.701331         1.640880         3.187112
 C        -2.144286         0.528815         2.414576
 C        -0.880860        -0.314597         2.077469
 H         0.759821        -0.609919        -0.054613
 H        -1.758196         0.297462        -1.116663
 H        -2.041981        -1.116981        -0.012366
 H        -3.517852         1.498454         0.891563
 H        -1.125128         2.315464        -0.070258
 H        -0.090256         2.885302         2.462333
 H        -1.706630         3.611406         2.255563
 H        -2.935253         0.065415         2.895829
 H        -0.160603        -0.188586         2.876196
 H        -1.111640        -1.385130         2.068493
