19
Iteration:  1669
 O         0.767254         0.217202         0.130471
 C        -0.576542         0.397300         0.743435
 C        -1.901922         0.061471         0.056938
 C        -2.484089         1.052490         1.012032
 C        -1.177970         1.829247         0.910629
 C        -1.142656         2.558644         2.283196
 O        -1.943906         1.735268         3.180059
 C        -2.129695         0.441374         2.428171
 C        -0.784468        -0.240036         2.094218
 H         0.585996        -0.118915        -0.783240
 H        -2.042808         0.496993        -1.094858
 H        -2.127817        -1.027373        -0.034960
 H        -3.456217         1.428538         0.934126
 H        -1.205841         2.424300        -0.000552
 H        -0.034033         2.814139         2.623840
 H        -1.667972         3.487067         2.205252
 H        -2.838879        -0.169820         2.915903
 H        -0.084146         0.011358         2.936240
 H        -0.823679        -1.283138         2.007032
