19
Iteration:  3213charge 0 multiplicity 1
 O         0.636871         0.143948         0.065531
 C        -0.542365         0.482510         0.719324
 C        -1.877337        -0.017402         0.031730
 C        -2.472241         0.953223         1.091136
 C        -1.188520         1.874901         0.911229
 C        -1.118848         2.565425         2.216888
 O        -1.999701         1.801479         3.103282
 C        -2.127859         0.414466         2.455159
 C        -0.737900        -0.211019         2.182578
 H         1.440000         0.686275         0.469812
 H        -1.956127         0.377394        -1.002727
 H        -2.222318        -0.996661         0.011338
 H        -3.459951         1.204094         0.754134
 H        -1.053703         2.412250        -0.084065
 H        -0.097979         2.565685         2.610671
 H        -1.541038         3.650543         2.295106
 H        -2.813221        -0.134185         3.047624
 H         0.022456         0.137549         2.903195
 H        -0.634417        -1.270580         2.006780
