19
Iteration:  3430
 O         0.751576         0.288497         0.095360
 C        -0.577147         0.323525         0.752926
 C        -1.898047        -0.041369         0.130699
 C        -2.438333         0.996523         1.024384
 C        -1.285292         1.823388         0.811527
 C        -1.225847         2.573466         2.231419
 O        -1.807496         1.745752         3.161581
 C        -2.147086         0.512700         2.360462
 C        -0.823274        -0.214966         2.139128
 H         1.477036         0.265114         0.843969
 H        -2.123030         0.213553        -0.991867
 H        -2.183077        -1.111390         0.395695
 H        -3.489584         1.385423         0.858208
 H        -1.180396         2.297886        -0.061680
 H        -0.145996         2.842716         2.431559
 H        -1.750644         3.516849         2.163014
 H        -2.962473        -0.023095         2.872718
 H        -0.024869         0.248535         2.812943
 H        -0.873179        -1.354560         2.165188
