19
Iteration:  4029
 O         0.736204         0.231652         0.273564
 C        -0.561202         0.342457         0.696895
 C        -1.895411         0.044312        -0.022098
 C        -2.486975         1.029407         1.033032
 C        -1.234692         1.839427         0.863344
 C        -1.140577         2.538917         2.242346
 O        -1.857387         1.724915         3.171545
 C        -2.117572         0.469909         2.416887
 C        -0.864236        -0.289910         2.091457
 H         0.952559         1.090102        -0.335046
 H        -1.980235         0.668021        -0.982996
 H        -2.286208        -1.001757        -0.028840
 H        -3.389768         1.607853         0.952795
 H        -1.125947         2.416941        -0.015951
 H        -0.014603         2.759780         2.423094
 H        -1.654232         3.452999         2.279545
 H        -2.863561        -0.009316         3.070662
 H         0.017960        -0.142439         2.785146
 H        -1.000665        -1.342975         1.887864
