19
Iteration:  3086
 O         0.723056         0.359277         0.146845
 C        -0.534785         0.444738         0.742396
 C        -1.866979        -0.089555         0.073725
 C        -2.563450         0.940066         0.959538
 C        -1.347372         1.800108         0.835890
 C        -1.013137         2.542385         2.256093
 O        -1.895758         1.744807         3.153217
 C        -2.196819         0.560304         2.384319
 C        -0.735157        -0.198100         2.183600
 H         0.783327        -0.529207        -0.146001
 H        -2.003580         0.277736        -1.001165
 H        -2.067766        -1.205047         0.282423
 H        -3.597539         1.276415         0.873605
 H        -1.280993         2.399859        -0.112878
 H         0.021302         2.425337         2.714554
 H        -1.268520         3.588483         2.205429
 H        -2.873412         0.000933         3.057585
 H        -0.183227        -0.058579         3.125026
 H        -0.568469        -1.321316         1.985249
