19
Iteration:  4557charge 0 multiplicity 1
 O         0.692939         0.087770         0.129176
 C        -0.594340         0.369071         0.677052
 C        -1.919360         0.173259        -0.073878
 C        -2.476968         0.990785         1.021307
 C        -1.228290         1.914050         1.004981
 C        -1.225058         2.564998         2.313844
 O        -1.811958         1.666387         3.228407
 C        -2.104602         0.437117         2.379280
 C        -0.807291        -0.210392         1.999809
 H         1.358148         0.584304         0.755843
 H        -1.841821         0.600660        -1.082152
 H        -2.235072        -0.919773        -0.085252
 H        -3.446665         1.484949         0.984113
 H        -0.906680         2.646925         0.256793
 H        -0.176129         2.830042         2.699049
 H        -1.816190         3.502079         2.138947
 H        -2.798659        -0.133182         2.920569
 H        -0.098642         0.225273         2.703667
 H        -0.759037        -1.259402         2.127696
