19
Iteration:  1189charge 0 multiplicity 1
 O         0.629011         0.198831        -0.022300
 C        -0.584297         0.468116         0.830998
 C        -1.845574        -0.050177        -0.007037
 C        -2.510093         1.017049         0.919197
 C        -1.207498         1.882242         0.971668
 C        -0.986508         2.532836         2.373182
 O        -1.963338         1.696299         3.134671
 C        -2.156731         0.508620         2.380975
 C        -0.800946        -0.192269         2.172403
 H         1.421576         0.534827         0.359360
 H        -1.809831         0.379035        -1.133333
 H        -2.274094        -1.048110        -0.006407
 H        -3.553979         1.437987         0.898597
 H        -0.958582         2.524937         0.054079
 H         0.082586         2.428249         2.815213
 H        -1.283961         3.494358         2.539116
 H        -2.900509        -0.227071         2.807536
 H        -0.213625        -0.103573         3.120124
 H        -0.961608        -1.232897         2.056174
