19
Iteration:  4746charge 0 multiplicity 1
 O         0.661173         0.068675         0.035569
 C        -0.579875         0.486029         0.718810
 C        -1.824325         0.073504        -0.034865
 C        -2.496269         0.968755         1.035718
 C        -1.213092         1.899933         0.946789
 C        -1.029686         2.526336         2.350116
 O        -1.990031         1.671607         3.163761
 C        -2.134863         0.529484         2.401403
 C        -0.818669        -0.142103         2.147412
 H         1.257151         0.755920        -0.027666
 H        -1.865398         0.433670        -1.095122
 H        -2.013454        -1.094121        -0.033821
 H        -3.541010         1.214387         0.847613
 H        -1.355909         2.526911        -0.024656
 H        -0.005246         2.363304         2.761081
 H        -1.248506         3.520564         2.471691
 H        -2.837294        -0.208104         2.981422
 H        -0.155161         0.265425         2.928868
 H        -0.712875        -1.223784         2.226393
