19
Iteration:  1385charge 0 multiplicity 1
 O         0.714086         0.225444         0.050228
 C        -0.526555         0.403065         0.727889
 C        -1.912014         0.031371        -0.011623
 C        -2.448738         1.060859         0.980347
 C        -1.211160         1.872408         0.935525
 C        -1.101014         2.545150         2.297797
 O        -1.901056         1.725410         3.188942
 C        -2.177300         0.448344         2.433010
 C        -0.822295        -0.311325         2.128497
 H         1.347711         0.379588         0.674479
 H        -2.010734         0.527736        -1.039729
 H        -2.326911        -0.906662         0.080646
 H        -3.482106         1.448313         0.770605
 H        -1.139947         2.560326         0.059728
 H        -0.107772         2.821939         2.564768
 H        -1.831938         3.452606         2.186644
 H        -2.899519        -0.165154         2.974654
 H        -0.121661        -0.036796         3.008784
 H        -0.938067        -1.389925         2.003916
