19
Iteration:  3402
 O         0.623549         0.217417         0.110287
 C        -0.631490         0.391074         0.774428
 C        -1.842018        -0.039911        -0.001657
 C        -2.574287         0.818841         0.974985
 C        -1.263217         1.856255         0.920195
 C        -1.006895         2.562605         2.244889
 O        -1.928296         1.817421         3.125699
 C        -2.116953         0.518717         2.427206
 C        -0.734674        -0.173176         2.190433
 H         1.362319         0.839647         0.552704
 H        -1.865450         0.411733        -0.950028
 H        -1.919145        -1.101425        -0.012181
 H        -3.619030         1.033605         0.769763
 H        -1.068101         2.503222        -0.092751
 H         0.038558         2.658628         2.535321
 H        -1.367997         3.655662         2.151641
 H        -2.834003        -0.076210         3.042610
 H         0.110653         0.065663         2.793194
 H        -0.831272        -1.255761         2.079583
