19
Iteration:    26
 O         0.813898         0.252711         0.323152
 C        -0.607556         0.408700         0.625781
 C        -2.011664         0.131036        -0.218499
 C        -2.578934         0.995999         1.004821
 C        -1.222760         1.792282         0.917006
 C        -1.001690         2.441889         2.256144
 O        -1.833961         1.746297         3.225062
 C        -2.170122         0.516407         2.455945
 C        -0.875779        -0.263276         2.052009
 H         1.189411         0.084231         1.119913
 H        -2.121831         0.775442        -1.228629
 H        -2.263234        -0.939551        -0.359517
 H        -3.545106         1.454496         0.928439
 H        -1.070917         2.449737         0.052323
 H         0.140928         2.338168         2.495234
 H        -1.294034         3.425512         2.225002
 H        -2.866950        -0.090418         3.093214
 H        -0.060517         0.168037         2.724732
 H        -1.057537        -1.418277         2.073605
