19
Iteration:  4255charge 0 multiplicity 1
 O         0.728595         0.200829         0.239983
 C        -0.561432         0.459394         0.699063
 C        -1.938778         0.062423        -0.036659
 C        -2.487989         0.997578         0.990949
 C        -1.180316         1.876488         0.926130
 C        -1.134806         2.519114         2.271270
 O        -1.918633         1.639674         3.116797
 C        -2.100003         0.476466         2.431394
 C        -0.773127        -0.207083         2.135436
 H         0.640823         0.065230        -0.664706
 H        -2.168495         0.539626        -0.916688
 H        -2.213756        -0.977194         0.154037
 H        -3.414325         1.505402         0.940623
 H        -1.041651         2.744250         0.112268
 H        -0.175252         2.770471         2.736919
 H        -1.669963         3.436492         2.404893
 H        -2.906605        -0.009939         2.934467
 H         0.160217         0.022449         2.764348
 H        -0.942863        -1.255989         1.831585
