19
Iteration:  1596charge 0 multiplicity 1
 O         0.761592         0.442186         0.094199
 C        -0.590895         0.392020         0.690844
 C        -1.941398        -0.068956        -0.016066
 C        -2.505669         0.996084         0.976183
 C        -1.209855         1.765054         0.890196
 C        -0.980007         2.489075         2.293558
 O        -1.882029         1.717227         3.203870
 C        -2.196528         0.539045         2.452882
 C        -0.892043        -0.255492         2.089016
 H         1.302237        -0.199090         0.759344
 H        -1.931482         0.302290        -0.981071
 H        -2.486164        -1.007163         0.116561
 H        -3.433388         1.578633         0.820497
 H        -0.902902         2.394010         0.041942
 H        -0.029244         2.583181         2.790307
 H        -1.555379         3.506259         2.190449
 H        -2.938387        -0.102391         3.013840
 H        -0.173978         0.030913         2.892409
 H        -1.020412        -1.404905         2.073608
