19
Iteration:  3561charge 0 multiplicity 1
 O         0.755929         0.362447         0.165933
 C        -0.577153         0.351697         0.686462
 C        -1.910544        -0.078328         0.054050
 C        -2.552599         0.877935         1.028264
 C        -1.189413         1.746018         0.813161
 C        -1.136136         2.611020         2.189496
 O        -1.886835         1.803719         3.199763
 C        -2.155762         0.533394         2.495701
 C        -0.803231        -0.153915         2.100874
 H         0.998653        -0.645123         0.143039
 H        -1.774903         0.579958        -0.888252
 H        -2.177147        -1.145647        -0.081457
 H        -3.628668         1.274806         0.894026
 H        -1.056281         2.217032        -0.086195
 H        -0.069791         2.624191         2.639097
 H        -1.460410         3.587603         2.089489
 H        -2.812391        -0.089519         3.183497
 H         0.066754         0.008739         2.773376
 H        -0.988121        -1.206790         2.080324
