19
Iteration:  3840
 O         0.714527         0.233708         0.179195
 C        -0.555153         0.404493         0.813873
 C        -1.891463        -0.060400         0.010466
 C        -2.547317         1.055293         0.933300
 C        -1.285660         1.933615         0.938361
 C        -1.125825         2.620906         2.298363
 O        -1.829727         1.718937         3.190349
 C        -2.175218         0.484373         2.275478
 C        -0.762528        -0.257761         2.129739
 H         0.845209        -0.657589        -0.401526
 H        -1.900578         0.520620        -0.924162
 H        -2.173161        -1.180104         0.175970
 H        -3.640322         1.269569         0.866471
 H        -1.079437         2.395765        -0.127296
 H         0.025105         2.631611         2.572517
 H        -1.350432         3.667548         2.409190
 H        -2.927588        -0.059315         2.839310
 H         0.029186        -0.096339         2.880906
 H        -0.761230        -1.385048         2.018260
