19
Iteration:  2717charge 0 multiplicity 1
 O         0.723474         0.280368         0.151398
 C        -0.539350         0.460642         0.705938
 C        -1.828786        -0.010682         0.004506
 C        -2.582146         0.870463         1.077714
 C        -1.322002         1.854412         0.884355
 C        -1.105319         2.512536         2.211078
 O        -1.867111         1.804848         3.116960
 C        -2.096917         0.501652         2.472678
 C        -0.794828        -0.188750         2.151148
 H         0.705504        -0.618237        -0.155580
 H        -1.992841         0.499876        -0.984226
 H        -1.780517        -1.083126        -0.035081
 H        -3.681321         0.978541         0.957757
 H        -1.331732         2.494576        -0.007509
 H         0.002274         2.466676         2.485357
 H        -1.477899         3.488161         2.247998
 H        -2.973946        -0.007610         3.067383
 H        -0.058612         0.141877         2.959637
 H        -0.772341        -1.210512         2.095077
