19
Iteration:  4572charge 0 multiplicity 1
 O         0.721037        -0.010361         0.094931
 C        -0.520220         0.455547         0.694205
 C        -1.884198         0.159746        -0.082269
 C        -2.568027         1.111946         1.010391
 C        -1.224817         1.909643         0.950662
 C        -1.198302         2.648906         2.318783
 O        -1.874823         1.583784         3.226080
 C        -2.144295         0.444526         2.432203
 C        -0.710454        -0.251184         2.111847
 H         1.464980         0.705204         0.210050
 H        -1.985006         0.715922        -1.034299
 H        -2.290533        -0.920937        -0.175396
 H        -3.560763         1.508524         0.845528
 H        -1.361047         2.406836        -0.032336
 H        -0.236688         2.989333         2.747989
 H        -1.917181         3.673119         2.416531
 H        -2.913864        -0.201558         2.960133
 H         0.107152         0.033049         2.835116
 H        -0.734207        -1.341495         1.874866
