19
Iteration:  2945charge 0 multiplicity 1
 O         0.695546         0.412859         0.082794
 C        -0.584425         0.413526         0.704156
 C        -1.862759        -0.157785         0.046793
 C        -2.555090         0.959506         0.981205
 C        -1.246796         1.825145         0.878063
 C        -1.044312         2.507653         2.259575
 O        -1.844919         1.733894         3.156558
 C        -2.184144         0.573105         2.444057
 C        -0.854445        -0.191424         2.182476
 H         1.270160        -0.325526         0.487254
 H        -1.869866         0.227512        -0.990485
 H        -2.031732        -1.213244         0.241482
 H        -3.526955         1.331057         0.673900
 H        -1.211515         2.357635        -0.032305
 H        -0.058652         2.411306         2.623532
 H        -1.329764         3.659383         2.216920
 H        -2.906483         0.004202         3.091485
 H         0.103203        -0.103536         2.710605
 H        -0.962557        -1.334723         2.201031
