19
Iteration:  4027charge 0 multiplicity 1
 O         0.737370         0.225836         0.278895
 C        -0.559927         0.345817         0.698169
 C        -1.886337         0.050505        -0.014726
 C        -2.497915         1.043763         1.036301
 C        -1.248023         1.835305         0.871587
 C        -1.149756         2.534635         2.233845
 O        -1.855948         1.718795         3.170698
 C        -2.103334         0.453258         2.410618
 C        -0.858351        -0.285433         2.074570
 H         0.840055         1.041514        -0.327325
 H        -1.903367         0.692145        -0.946313
 H        -2.307411        -1.040809         0.023074
 H        -3.345738         1.683752         0.991512
 H        -1.026109         2.409973        -0.115069
 H        -0.040155         2.809254         2.413493
 H        -1.658890         3.468404         2.287430
 H        -2.851606         0.019933         3.069877
 H        -0.015665        -0.104640         2.811507
 H        -1.041672        -1.330563         1.893921
