19
Iteration:  2326charge 0 multiplicity 1
 O         0.744601         0.144631         0.119489
 C        -0.563074         0.448763         0.700299
 C        -1.778570         0.007202        -0.028711
 C        -2.629988         0.933460         1.082593
 C        -1.413980         1.883927         0.916081
 C        -1.149993         2.580152         2.167323
 O        -1.785683         1.751362         3.171330
 C        -2.103545         0.501989         2.455017
 C        -0.809317        -0.202398         2.140119
 H         1.405618         0.239201         0.775719
 H        -1.937416         0.726993        -0.875523
 H        -1.983026        -1.150745        -0.167129
 H        -3.652369         1.223671         0.978178
 H        -1.387246         2.380147        -0.002612
 H        -0.035430         2.652711         2.458770
 H        -1.572197         3.524991         1.924294
 H        -2.705300        -0.118554         3.137523
 H        -0.045810         0.155743         2.866211
 H        -0.941762        -1.301375         2.068952
