19
Iteration:  1119
 O         0.650644         0.272233         0.132085
 C        -0.570222         0.475689         0.816874
 C        -1.848673         0.063684         0.024647
 C        -2.551707         1.054210         0.982333
 C        -1.210998         1.804324         0.933577
 C        -1.115508         2.535658         2.213505
 O        -1.785283         1.633770         3.170726
 C        -2.166520         0.503147         2.398543
 C        -0.886607        -0.271637         2.047254
 H         1.370930        -0.123054         0.758088
 H        -1.567714         0.379964        -0.949223
 H        -2.014178        -1.085061        -0.052978
 H        -3.429534         1.657277         0.857779
 H        -1.061077         2.455146         0.116399
 H        -0.093143         2.752853         2.544806
 H        -1.709665         3.553666         2.224566
 H        -2.920632         0.087684         3.056289
 H        -0.102467        -0.243395         2.851621
 H        -1.012930        -1.403937         1.757196
