19
Iteration:  4418charge 0 multiplicity 1
 O         0.754630         0.128867         0.116003
 C        -0.529621         0.329166         0.708892
 C        -1.941610         0.068180        -0.081123
 C        -2.468307         1.026359         0.981599
 C        -1.171248         1.923072         0.947527
 C        -1.237951         2.614972         2.312728
 O        -1.851181         1.660809         3.240970
 C        -2.101315         0.432264         2.424621
 C        -0.832284        -0.200334         2.135104
 H         0.812963         0.794359        -0.528382
 H        -2.025452         0.526665        -1.072258
 H        -2.391562        -0.999585         0.013695
 H        -3.388504         1.513778         0.844518
 H        -0.932663         2.444804        -0.026728
 H        -0.430294         3.030534         2.927988
 H        -1.836204         3.519830         2.022973
 H        -2.826601        -0.152202         2.936304
 H        -0.113697         0.165990         2.958871
 H        -0.822073        -1.307388         2.077488
