19
Iteration:  1230charge 0 multiplicity 1
 O         0.691995         0.230648         0.103571
 C        -0.496875         0.402147         0.705461
 C        -1.958366         0.039632        -0.044237
 C        -2.528544         1.002302         1.028638
 C        -1.193983         1.853075         0.933389
 C        -1.028957         2.577088         2.302857
 O        -1.928993         1.662318         3.144605
 C        -2.144774         0.472854         2.418097
 C        -0.836419        -0.187602         2.147123
 H         1.478837         0.138615         0.725018
 H        -2.010278         0.389493        -1.133361
 H        -2.285243        -1.015533        -0.045637
 H        -3.451730         1.530970         0.897776
 H        -1.120740         2.408859         0.026222
 H        -0.011835         2.590585         2.689916
 H        -1.533547         3.657983         2.165054
 H        -2.907923        -0.086206         3.045188
 H         0.009500        -0.054694         2.900541
 H        -1.016850        -1.255521         1.872195
