19
Iteration:   177charge 0 multiplicity 1
 O         0.678663         0.266750         0.265520
 C        -0.594795         0.345665         0.770485
 C        -1.918537         0.083520        -0.018901
 C        -2.417005         1.072229         1.003558
 C        -1.165263         1.856162         0.902958
 C        -1.053144         2.463732         2.174202
 O        -1.943438         1.768874         3.099916
 C        -2.086864         0.484355         2.430554
 C        -0.865108        -0.402670         2.108212
 H         0.936798         1.119397         0.051113
 H        -2.011528         0.536421        -1.049390
 H        -2.327962        -0.877128        -0.068307
 H        -3.390771         1.549977         1.073735
 H        -1.000663         2.490319         0.029890
 H        -0.056432         2.458144         2.610254
 H        -1.318311         3.641131         2.313279
 H        -3.047593         0.019891         2.833343
 H        -0.026989        -0.404833         2.805152
 H        -1.204558        -1.436736         2.115553
