19
Iteration:  4066
 O         0.669981         0.243936         0.199772
 C        -0.592173         0.439283         0.714570
 C        -1.805252        -0.036459         0.027508
 C        -2.501751         1.000545         0.987352
 C        -1.254047         1.859557         0.872615
 C        -1.016032         2.410638         2.303186
 O        -1.885773         1.742879         3.146265
 C        -2.216408         0.511365         2.407453
 C        -0.825268        -0.173015         2.118571
 H         0.890505         1.082922        -0.361685
 H        -1.868018         0.405316        -0.950931
 H        -2.091020        -1.067243         0.011100
 H        -3.578963         1.269510         0.695234
 H        -1.366348         2.530591        -0.018726
 H         0.040961         2.186300         2.595982
 H        -1.052285         3.575068         2.525173
 H        -2.883614        -0.244246         2.865721
 H        -0.104312         0.155361         2.842237
 H        -0.899122        -1.320149         2.101242
