19
Iteration:   853charge 0 multiplicity 1
 O         0.649138         0.153886         0.081858
 C        -0.567871         0.343308         0.664929
 C        -1.822607         0.018794        -0.105705
 C        -2.465252         1.078555         1.062358
 C        -1.216194         1.877826         0.903784
 C        -1.079475         2.537917         2.311633
 O        -1.905886         1.687685         3.213657
 C        -2.192796         0.524911         2.444238
 C        -0.834270        -0.202854         2.138239
 H         1.364787         0.393420         0.808832
 H        -1.879296         0.462711        -1.189273
 H        -2.227146        -1.008062        -0.161408
 H        -3.383508         1.571662         0.860314
 H        -1.184168         2.676635         0.151289
 H         0.048192         2.531789         2.613277
 H        -1.475294         3.503532         2.295461
 H        -2.958684        -0.132432         2.803905
 H        -0.026193         0.200577         2.803415
 H        -0.927649        -1.305409         2.261827
