19
Iteration:  3565charge 0 multiplicity 1
 O         0.751530         0.338774         0.198037
 C        -0.605209         0.356775         0.713215
 C        -1.925385        -0.071393         0.053039
 C        -2.574029         0.872754         0.998234
 C        -1.192186         1.738730         0.845171
 C        -1.161140         2.632750         2.201602
 O        -1.877586         1.799052         3.187251
 C        -2.094461         0.514977         2.487211
 C        -0.778877        -0.146291         2.050807
 H         0.970277        -0.628950         0.188534
 H        -1.876770         0.501916        -0.870160
 H        -2.232714        -1.163007        -0.030274
 H        -3.494013         1.339332         0.828977
 H        -0.953446         2.358030        -0.092409
 H        -0.199757         2.676628         2.665476
 H        -1.451796         3.719639         2.038326
 H        -2.720448        -0.012676         3.202252
 H         0.055111         0.048868         2.724308
 H        -0.998886        -1.309573         2.004115
