19
Iteration:  1838charge 0 multiplicity 1
 O         0.780504         0.328310         0.141157
 C        -0.587205         0.337546         0.712135
 C        -1.927511        -0.006760         0.025629
 C        -2.564400         1.018213         1.036946
 C        -1.210886         1.770484         0.882295
 C        -1.073492         2.519600         2.232095
 O        -1.928548         1.729411         3.194623
 C        -2.179578         0.567162         2.434090
 C        -0.740594        -0.185264         2.108484
 H         1.047343        -0.648123        -0.086775
 H        -1.986752         0.470894        -0.962462
 H        -2.290884        -1.076008        -0.135870
 H        -3.570750         1.414482         0.768365
 H        -1.342350         2.278883        -0.061907
 H        -0.066624         2.649729         2.746816
 H        -1.493361         3.521800         2.248486
 H        -2.706309        -0.140422         3.122841
 H         0.107882         0.173723         2.625221
 H        -0.819062        -1.305048         2.198451
