19
Iteration:  3689
 O         0.753411         0.201864         0.199063
 C        -0.571999         0.398354         0.746010
 C        -1.873104        -0.070301        -0.013623
 C        -2.569770         0.954509         0.958032
 C        -1.305086         1.847618         0.849925
 C        -1.106841         2.523110         2.254927
 O        -1.859256         1.746067         3.198931
 C        -2.098875         0.583175         2.430025
 C        -0.768627        -0.162613         2.201941
 H         0.607418         0.563578        -0.780584
 H        -1.883350         0.263774        -1.081673
 H        -2.319515        -1.048158        -0.036669
 H        -3.652744         1.215706         0.746686
 H        -1.173996         2.574498        -0.060572
 H        -0.090481         2.472619         2.530477
 H        -1.467796         3.616966         2.358016
 H        -2.823221        -0.073009         2.917316
 H         0.100439         0.134576         2.849124
 H        -0.960743        -1.267942         2.086390
