19
Iteration:  4824charge 0 multiplicity 1
 O         0.669162         0.290012         0.294988
 C        -0.634150         0.396381         0.808593
 C        -1.791179         0.004609        -0.040692
 C        -2.585274         1.045040         0.996779
 C        -1.258161         1.842876         0.855695
 C        -1.149765         2.685798         2.188696
 O        -1.707775         1.639345         3.162334
 C        -2.120825         0.482262         2.406912
 C        -0.845573        -0.299480         2.116078
 H         0.859323        -0.434196        -0.440800
 H        -1.701319         0.687210        -0.954501
 H        -2.270756        -1.048130        -0.116634
 H        -3.605828         1.414820         0.929886
 H        -1.136870         2.311666        -0.128847
 H        -0.094567         2.919523         2.346445
 H        -1.745942         3.491810         2.408385
 H        -2.880852        -0.105509         2.972543
 H        -0.045912        -0.096534         2.786263
 H        -1.028557        -1.389795         1.918153
