19
Iteration:  1693charge 0 multiplicity 1
 O         0.686113         0.196922         0.174989
 C        -0.607251         0.399903         0.787091
 C        -1.893956        -0.047440        -0.022058
 C        -2.497889         1.033088         0.923814
 C        -1.208157         1.895022         0.929549
 C        -1.073212         2.620541         2.279635
 O        -1.901758         1.666512         3.171139
 C        -2.129952         0.504870         2.456579
 C        -0.761276        -0.254520         2.109200
 H         0.665514         0.895384        -0.645039
 H        -1.982886         0.184689        -1.193244
 H        -2.234718        -1.100476         0.017392
 H        -3.515186         1.441035         0.921662
 H        -1.051708         2.505647         0.014253
 H         0.007590         2.784496         2.681955
 H        -1.577481         3.595422         2.316022
 H        -2.949194        -0.096025         2.939440
 H         0.065728         0.016544         2.764636
 H        -0.809751        -1.357680         2.098901
