19
Iteration:  3673charge 0 multiplicity 1
 O         0.642406         0.193468         0.189302
 C        -0.597012         0.402466         0.693992
 C        -1.848335        -0.120294        -0.013524
 C        -2.490370         0.927939         0.951269
 C        -1.281446         1.873101         0.865867
 C        -1.023927         2.543404         2.264161
 O        -1.895618         1.733939         3.201579
 C        -2.173372         0.514042         2.456720
 C        -0.781886        -0.061911         2.108704
 H         1.035630         0.952972        -0.190567
 H        -1.985531         0.240258        -1.032203
 H        -1.964384        -1.293269         0.130263
 H        -3.464526         1.310720         0.830635
 H        -1.225092         2.475294        -0.072769
 H         0.119975         2.400885         2.529229
 H        -1.297890         3.545636         2.371466
 H        -2.853986        -0.047122         3.118785
 H        -0.096307         0.316540         2.863093
 H        -0.759898        -1.181854         2.285656
