19
Iteration:   430charge 0 multiplicity 1
 O         0.548734         0.085756         0.074362
 C        -0.566406         0.426880         0.732136
 C        -1.786805         0.122005        -0.060890
 C        -2.442703         1.014332         0.941155
 C        -1.252843         1.929375         0.985924
 C        -1.041408         2.528935         2.363026
 O        -1.998045         1.779415         3.091665
 C        -2.113003         0.449051         2.364571
 C        -0.783780        -0.278868         2.222232
 H         1.444902         0.291385         0.556074
 H        -1.788971         0.501595        -1.149289
 H        -2.025002        -0.939859        -0.069938
 H        -3.479877         1.279679         0.918973
 H        -1.085875         2.629931         0.144571
 H        -0.055398         2.414877         2.826093
 H        -1.248230         3.549088         2.455116
 H        -2.842503        -0.090251         2.956414
 H        -0.031097         0.099837         2.940251
 H        -0.762415        -1.374411         2.191466
