19
Iteration:  2549
 O         0.636169         0.296197        -0.037939
 C        -0.563401         0.416179         0.788144
 C        -1.804502        -0.070298         0.041328
 C        -2.551404         0.963839         1.045316
 C        -1.254734         1.798668         0.893885
 C        -1.052625         2.531698         2.268832
 O        -1.953205         1.750625         3.074262
 C        -2.166499         0.511454         2.461677
 C        -0.722371        -0.184285         2.234722
 H         1.350830         0.667586         0.370431
 H        -1.826913         0.407806        -0.978350
 H        -1.933985        -1.218802        -0.046712
 H        -3.555005         1.504954         0.940591
 H        -1.210211         2.349220        -0.142294
 H         0.059771         2.333472         2.571510
 H        -1.266107         3.521458         2.453448
 H        -2.820018        -0.085814         3.028487
 H        -0.304826        -0.047366         3.161058
 H        -0.935378        -1.279404         2.256989
