19
Iteration:   951
 O         0.747030         0.253975         0.157477
 C        -0.551083         0.422297         0.768544
 C        -1.902975         0.074402        -0.005186
 C        -2.615246         0.990843         0.972512
 C        -1.241623         1.881483         0.944386
 C        -1.011369         2.516403         2.277308
 O        -1.857405         1.685941         3.165408
 C        -2.227264         0.543378         2.407306
 C        -0.799555        -0.261284         2.054326
 H         1.259747        -0.602573         0.563009
 H        -1.982955         0.488693        -1.084822
 H        -2.145046        -1.007761         0.056376
 H        -3.615976         1.400064         0.816853
 H        -1.111287         2.530021         0.040401
 H         0.043248         2.387574         2.378909
 H        -1.390157         3.585763         2.261269
 H        -2.930608        -0.012204         3.016046
 H        -0.112499         0.054493         2.865772
 H        -0.953384        -1.360397         1.902719
