19
Iteration:  4180
 O         0.760012         0.240677         0.247878
 C        -0.526834         0.412689         0.719302
 C        -1.986579         0.021886         0.013011
 C        -2.555106         1.014947         0.962842
 C        -1.209802         1.781117         0.948493
 C        -1.111213         2.459130         2.258744
 O        -1.862598         1.705737         3.179846
 C        -2.166481         0.558376         2.433436
 C        -0.768922        -0.230077         2.007620
 H         1.088405         1.082789        -0.323848
 H        -2.001719         0.423434        -1.025137
 H        -2.340661        -1.032148         0.065586
 H        -3.502960         1.303192         0.608272
 H        -1.099597         2.495617         0.076121
 H        -0.050318         2.543335         2.552128
 H        -1.567345         3.598322         2.285628
 H        -2.894235         0.028513         3.015293
 H         0.068570        -0.039806         2.754923
 H        -1.050796        -1.261818         2.046052
