19
Iteration:   885
 O         0.616160         0.102344         0.085322
 C        -0.498789         0.461244         0.731958
 C        -1.839859         0.077339        -0.030277
 C        -2.466406         1.049261         1.032052
 C        -1.184920         1.896158         0.932689
 C        -1.075659         2.501822         2.258266
 O        -1.953819         1.677267         3.168507
 C        -2.150201         0.484639         2.428261
 C        -0.859423        -0.194400         2.133847
 H         1.339751         0.678789         0.306516
 H        -1.979119         0.459798        -1.148043
 H        -2.056625        -0.982948         0.140646
 H        -3.424732         1.502402         0.927031
 H        -1.071465         2.639747         0.130518
 H         0.031111         2.475910         2.666977
 H        -1.433939         3.489655         2.332934
 H        -2.933547        -0.187373         2.817884
 H        -0.034818        -0.070049         2.890747
 H        -1.031070        -1.291069         2.041972
