19
Iteration:   422
 O         0.605770         0.064470         0.073770
 C        -0.552572         0.423162         0.739962
 C        -1.864489         0.095270        -0.089418
 C        -2.516894         1.014459         0.976797
 C        -1.174302         1.949967         0.942560
 C        -1.023578         2.543936         2.388702
 O        -2.048320         1.732236         3.104331
 C        -2.095802         0.478126         2.408927
 C        -0.755371        -0.213647         2.182624
 H         1.312515         0.355224         0.810111
 H        -1.667595         0.494803        -1.013405
 H        -2.118530        -0.991305        -0.144273
 H        -3.539368         1.370246         0.967430
 H        -1.064768         2.474054         0.001679
 H        -0.071936         2.384458         2.780693
 H        -1.290100         3.676772         2.418624
 H        -2.797254        -0.172581         2.818281
 H         0.100701        -0.019260         2.829593
 H        -0.892425        -1.310159         2.085516
