19
Iteration:  4652charge 0 multiplicity 1
 O         0.711506         0.395346         0.345994
 C        -0.603707         0.491177         0.719031
 C        -1.878906        -0.084464        -0.076037
 C        -2.627267         0.969488         1.013344
 C        -1.280456         1.877770         0.910669
 C        -0.906596         2.408264         2.304169
 O        -1.813411         1.735068         3.137747
 C        -2.189525         0.473217         2.396368
 C        -0.860474        -0.244183         2.016762
 H         0.766174         0.015266        -0.610924
 H        -1.938865         0.447991        -1.042966
 H        -2.188786        -1.074847        -0.185294
 H        -3.688375         1.339522         0.936098
 H        -1.306643         2.616542         0.169775
 H         0.099258         2.091196         2.612244
 H        -1.065513         3.535579         2.455719
 H        -2.987366         0.138504         3.037584
 H        -0.082256        -0.032252         2.735692
 H        -0.707011        -1.345851         1.762668
