19
Iteration:  2884charge 0 multiplicity 1
 O         0.703605         0.135499         0.012183
 C        -0.535493         0.373241         0.722179
 C        -1.849430         0.039123         0.027292
 C        -2.488644         0.958396         1.004085
 C        -1.204030         1.849585         0.906000
 C        -1.235071         2.662765         2.230754
 O        -1.889872         1.784459         3.226299
 C        -2.135979         0.417781         2.506455
 C        -0.793640        -0.213349         2.142296
 H         1.562850         0.530451         0.544661
 H        -1.827730         0.401072        -0.977005
 H        -2.363671        -0.950692        -0.085294
 H        -3.502691         1.394869         0.678097
 H        -1.262186         2.409538        -0.071686
 H        -0.188910         2.815165         2.743781
 H        -1.694490         3.532141         1.982704
 H        -2.914038        -0.231047         3.049203
 H         0.113260         0.086079         2.755052
 H        -0.929623        -1.254064         2.108477
