19
Iteration:  1281
 O         0.734820         0.231184         0.117680
 C        -0.571134         0.455393         0.721055
 C        -1.876385         0.052449         0.010319
 C        -2.584957         0.991139         0.964763
 C        -1.253307         1.861770         0.943746
 C        -1.133110         2.505287         2.291938
 O        -1.756100         1.687908         3.144227
 C        -2.154543         0.536555         2.418972
 C        -0.892856        -0.276733         2.103281
 H         1.366076         0.115799         0.973118
 H        -1.881366         0.504852        -0.929798
 H        -2.287355        -0.995638        -0.146294
 H        -3.570304         1.323857         0.720336
 H        -0.986658         2.439550         0.059472
 H        -0.098658         2.772910         2.608798
 H        -1.598610         3.471983         2.120877
 H        -2.893187         0.091563         3.059202
 H        -0.159065        -0.030286         2.847353
 H        -0.847724        -1.403923         2.055797
