19
Iteration:  2933
 O         0.696610         0.295420         0.094052
 C        -0.559847         0.481854         0.723111
 C        -1.825843        -0.093215         0.000231
 C        -2.539376         0.949366         0.991762
 C        -1.330667         1.868288         0.876186
 C        -1.038607         2.530730         2.199483
 O        -1.847688         1.739921         3.222281
 C        -2.178664         0.495859         2.425705
 C        -0.783416        -0.200313         2.164232
 H         1.148058        -0.279761         0.614660
 H        -2.109348        -0.052549        -1.099921
 H        -2.111714        -1.143693         0.204868
 H        -3.503134         1.394066         0.973688
 H        -1.211374         2.601361         0.069295
 H         0.008647         2.527240         2.404658
 H        -1.399299         3.666687         2.248467
 H        -3.023589        -0.004743         2.860969
 H        -0.388186         0.226783         3.059720
 H        -0.807424        -1.378340         2.042767
