19
Iteration:  1513charge 0 multiplicity 1
 O         0.620639         0.171748        -0.020702
 C        -0.547210         0.390562         0.747684
 C        -1.792825         0.023883        -0.025509
 C        -2.508892         0.999189         0.969588
 C        -1.144789         1.908040         0.920868
 C        -1.110926         2.602816         2.342806
 O        -1.948955         1.659126         3.204931
 C        -2.208805         0.501046         2.452932
 C        -0.789548        -0.224416         2.166075
 H         1.536365         0.494584         0.358005
 H        -1.933676         0.251652        -1.111578
 H        -2.177914        -1.061832         0.028748
 H        -3.346893         1.755452         0.824507
 H        -0.953221         2.612432         0.085951
 H        -0.150206         2.825674         2.886153
 H        -1.513462         3.543577         2.183274
 H        -2.912291        -0.278732         2.888359
 H         0.017640        -0.049207         2.855872
 H        -0.978573        -1.299463         2.168245
