19
Iteration:  2226
 O         0.727960         0.137150         0.110301
 C        -0.567634         0.404531         0.642756
 C        -1.975578        -0.003666         0.026911
 C        -2.554445         0.952592         1.047061
 C        -1.222876         1.867451         0.899941
 C        -1.139835         2.558999         2.237817
 O        -1.956737         1.787314         3.168074
 C        -2.081819         0.493541         2.473426
 C        -0.695116        -0.195813         2.117676
 H         1.351085         0.471496         0.666879
 H        -1.997609         0.550039        -1.039166
 H        -2.169627        -1.155800        -0.252235
 H        -3.430127         1.519424         1.083227
 H        -1.215067         2.492293         0.064319
 H        -0.006098         2.801595         2.565950
 H        -1.623380         3.509265         2.158361
 H        -2.824911        -0.097328         3.005430
 H         0.158878        -0.028169         2.898663
 H        -0.634987        -1.282795         2.057152
