19
Iteration:  4002charge 0 multiplicity 1
 O         0.704653         0.201881         0.263670
 C        -0.551403         0.432201         0.698073
 C        -1.902231         0.043595        -0.042122
 C        -2.487482         0.983019         0.946980
 C        -1.181840         1.907829         0.926714
 C        -1.158150         2.598860         2.289590
 O        -1.772737         1.650365         3.167319
 C        -2.188947         0.486622         2.378766
 C        -0.834661        -0.293828         2.182194
 H         0.726992         0.237426        -0.803894
 H        -2.045291         0.565646        -0.965629
 H        -2.212158        -1.028448         0.111445
 H        -3.523636         1.344107         0.694577
 H        -1.213705         2.656654        -0.024192
 H        -0.193933         2.986034         2.559193
 H        -1.827458         3.533059         2.317907
 H        -3.016610         0.112141         2.996734
 H        -0.022044        -0.088781         2.838500
 H        -0.811460        -1.352646         1.840680
