19
Iteration:  2231charge 0 multiplicity 1
 O         0.681264         0.152682         0.087217
 C        -0.576961         0.423209         0.705008
 C        -1.949080        -0.017652         0.011960
 C        -2.519020         0.945347         1.048009
 C        -1.212833         1.829474         0.916250
 C        -1.118000         2.585793         2.269340
 O        -1.961875         1.798570         3.131351
 C        -2.101264         0.502293         2.502134
 C        -0.682986        -0.220165         2.094723
 H         1.533798         0.437599         0.645641
 H        -1.937820         0.503049        -0.887139
 H        -2.141923        -1.024942        -0.116953
 H        -3.519298         1.489134         0.835768
 H        -1.258772         2.463622        -0.039862
 H        -0.122211         2.687232         2.538054
 H        -1.613800         3.597737         2.245418
 H        -2.810309        -0.190585         2.998930
 H         0.093717         0.086218         2.739142
 H        -0.711855        -1.344685         1.985449
