19
Iteration:  3363
 O         0.678966         0.196263         0.053523
 C        -0.529960         0.454732         0.701793
 C        -1.894562        -0.066491         0.108809
 C        -2.553766         0.906493         0.972766
 C        -1.202695         1.828400         0.851657
 C        -1.066516         2.537229         2.252243
 O        -1.967787         1.773780         3.160307
 C        -2.145922         0.522545         2.434503
 C        -0.729525        -0.118266         2.154807
 H         1.326325         0.565904         0.656730
 H        -2.117731         0.167994        -0.985235
 H        -2.234852        -1.151727         0.267236
 H        -3.608855         1.145120         0.872686
 H        -0.976316         2.474898         0.048854
 H        -0.069479         2.602622         2.782994
 H        -1.506953         3.499269         2.204015
 H        -2.881557        -0.047509         2.949114
 H         0.087901         0.183852         2.909733
 H        -0.819891        -1.229053         2.157735
