19
Iteration:  1590
 O         0.787024         0.415555         0.092599
 C        -0.638095         0.354602         0.702247
 C        -1.911966        -0.070525        -0.062878
 C        -2.573013         1.019047         0.954446
 C        -1.214604         1.783432         0.950615
 C        -0.992710         2.558300         2.293450
 O        -1.870167         1.710614         3.228882
 C        -2.223733         0.555004         2.477100
 C        -0.845796        -0.296966         2.079402
 H         1.275879        -0.053595         0.676446
 H        -1.721035         0.280463        -1.151910
 H        -2.384098        -1.084650         0.161655
 H        -3.539098         1.513373         0.669272
 H        -1.057050         2.384198         0.036973
 H         0.123363         2.508542         2.539802
 H        -1.404327         3.535466         2.214199
 H        -2.929183        -0.048628         3.069168
 H        -0.220156        -0.012022         2.917086
 H        -0.910117        -1.362627         2.001820
