19
Iteration:   289
 O         0.616994         0.152833         0.019716
 C        -0.519375         0.402649         0.789597
 C        -1.793064         0.060290         0.012829
 C        -2.531000         0.983614         0.892856
 C        -1.202923         1.912820         0.965196
 C        -1.062880         2.474325         2.367126
 O        -1.926258         1.730810         3.119946
 C        -2.177387         0.547566         2.372814
 C        -0.807406        -0.201027         2.196714
 H         1.405887        -0.078786         0.696918
 H        -1.840657         0.419624        -1.035414
 H        -2.151744        -0.974078        -0.059490
 H        -3.610450         1.243894         0.790800
 H        -1.061016         2.602673         0.103642
 H        -0.003335         2.497941         2.732370
 H        -1.314769         3.680895         2.364478
 H        -3.010413        -0.012868         2.793842
 H        -0.221660         0.122489         3.077818
 H        -1.013265        -1.296414         2.139673
