19
Iteration:  4860
 O         0.761992         0.071940         0.172328
 C        -0.569226         0.398336         0.662557
 C        -1.881425        -0.019530         0.019698
 C        -2.539556         1.038033         1.061157
 C        -1.234935         1.854219         0.896073
 C        -1.155928         2.616974         2.239851
 O        -1.891300         1.705645         3.232152
 C        -2.130591         0.521321         2.425840
 C        -0.803146        -0.153019         2.077754
 H         1.169383         1.007571        -0.066381
 H        -1.949406         0.403572        -1.052963
 H        -2.192923        -1.126627        -0.189783
 H        -3.541939         1.348857         0.779637
 H        -1.133563         2.405051         0.013248
 H        -0.174669         2.736460         2.650090
 H        -1.628741         3.604697         2.143830
 H        -2.720199        -0.114429         3.002270
 H         0.014498        -0.069028         2.805399
 H        -0.889631        -1.214013         1.868145
