19
Iteration:   348
 O         0.729233         0.300442         0.187575
 C        -0.550744         0.389345         0.736251
 C        -1.832386         0.068454        -0.123474
 C        -2.538345         1.015005         1.026345
 C        -1.235212         1.854982         0.916236
 C        -1.005642         2.616562         2.210599
 O        -1.805482         1.700207         3.161877
 C        -2.244479         0.487565         2.433260
 C        -1.004765        -0.373799         2.151639
 H         1.306545        -0.069482         0.822020
 H        -1.774721         0.525794        -1.090565
 H        -2.087968        -1.062283        -0.164041
 H        -3.487839         1.535184         1.006240
 H        -1.128868         2.418673        -0.000133
 H         0.087859         2.580366         2.590164
 H        -1.421512         3.630820         2.148865
 H        -2.953185        -0.005450         3.113635
 H        -0.197385        -0.299534         2.898987
 H        -1.079285        -1.450754         1.884004
