19
Iteration:  1635charge 0 multiplicity 1
 O         0.675414         0.251372         0.143960
 C        -0.524647         0.452507         0.763418
 C        -1.840218        -0.012443        -0.034647
 C        -2.547542         0.977626         0.916813
 C        -1.306719         1.884379         0.898648
 C        -1.053682         2.491326         2.386238
 O        -1.872242         1.748409         3.187835
 C        -2.119540         0.454790         2.423453
 C        -0.837882        -0.171531         2.113129
 H         0.731392        -0.573615        -0.208039
 H        -1.851791         0.618817        -1.088459
 H        -2.108352        -1.114391        -0.135418
 H        -3.560971         1.282040         0.792841
 H        -1.176894         2.446502        -0.027896
 H         0.127463         2.537517         2.608932
 H        -1.432462         3.468556         2.332350
 H        -2.880291        -0.016083         2.959272
 H         0.022290         0.160174         2.742630
 H        -0.853641        -1.213346         2.128673
