19
Iteration:  1298charge 0 multiplicity 1
 O         0.652126         0.313045         0.099112
 C        -0.570414         0.329370         0.792336
 C        -1.893845         0.009821        -0.020263
 C        -2.462742         1.082348         1.025718
 C        -1.166415         1.840958         0.898813
 C        -1.073559         2.623513         2.186535
 O        -1.891845         1.675867         3.222430
 C        -2.193719         0.477747         2.387405
 C        -0.799226        -0.334478         2.104379
 H         1.405314         0.213704         0.824048
 H        -1.894604         0.350057        -1.179120
 H        -2.233720        -0.992739         0.121080
 H        -3.445462         1.659608         0.973761
 H        -1.168581         2.438593        -0.078606
 H        -0.034102         2.622320         2.584242
 H        -1.623647         3.600800         2.369431
 H        -2.987885        -0.147136         2.856652
 H        -0.048994        -0.067416         2.909794
 H        -1.108559        -1.344542         1.984146
