19
Iteration:  3972charge 0 multiplicity 1
 O         0.734878         0.184931         0.196512
 C        -0.558540         0.420413         0.711982
 C        -1.773468         0.077289         0.004067
 C        -2.637221         1.033575         0.961252
 C        -1.249981         1.825447         0.966453
 C        -1.067845         2.505496         2.262457
 O        -1.925250         1.701950         3.221552
 C        -2.164186         0.524186         2.414048
 C        -0.767833        -0.201048         2.076832
 H         0.510308         0.065357        -0.721666
 H        -1.814453         0.384685        -1.100020
 H        -2.072000        -1.095260         0.025089
 H        -3.610747         1.469455         0.769288
 H        -1.170298         2.521180         0.068592
 H         0.065058         2.628811         2.486689
 H        -1.473255         3.467610         2.347283
 H        -2.858877         0.019380         3.092518
 H         0.104542        -0.120260         2.771481
 H        -0.898938        -1.247988         1.829886
