19
Iteration:   627
 O         0.657868         0.236382         0.166110
 C        -0.555601         0.361173         0.779099
 C        -1.940666         0.074899        -0.009211
 C        -2.516990         1.064545         0.991748
 C        -1.181831         1.856158         0.924810
 C        -1.093278         2.517198         2.329370
 O        -1.816041         1.654333         3.064230
 C        -2.125549         0.528710         2.381281
 C        -0.862993        -0.264434         2.086967
 H         1.404740         0.326033         0.891979
 H        -1.985655         0.548595        -0.960719
 H        -2.248576        -1.007753         0.042916
 H        -3.457806         1.576907         0.835933
 H        -1.032670         2.421983        -0.014130
 H        -0.076696         2.650534         2.617889
 H        -1.607051         3.441485         2.274642
 H        -2.880629         0.035696         2.896337
 H        -0.090843        -0.050603         2.819377
 H        -1.065433        -1.349418         2.108348
