19
Iteration:  2615charge 0 multiplicity 1
 O         0.673913         0.177925         0.175554
 C        -0.591604         0.498029         0.710406
 C        -1.891201        -0.026985        -0.010683
 C        -2.623447         0.933423         1.081642
 C        -1.277088         1.917111         0.840150
 C        -1.190902         2.585371         2.196980
 O        -1.818124         1.721098         3.185812
 C        -2.085459         0.444214         2.416737
 C        -0.685613        -0.188979         2.127622
 H         1.292427         0.028948         1.024826
 H        -1.991695         0.410434        -1.089485
 H        -2.066791        -1.159440        -0.161015
 H        -3.559236         1.387700         0.763703
 H        -1.127650         2.500929        -0.156708
 H        -0.106108         2.782093         2.498100
 H        -1.673227         3.501627         2.248929
 H        -2.751820        -0.132937         3.002835
 H         0.136035         0.162050         2.685241
 H        -0.599049        -1.305045         2.060698
