19
Iteration:  2860charge 0 multiplicity 1
 O         0.569389         0.227539         0.039398
 C        -0.552208         0.450727         0.791930
 C        -1.801288        -0.083468         0.055776
 C        -2.478924         0.989862         0.964198
 C        -1.215740         1.890289         0.926886
 C        -1.158426         2.573969         2.287010
 O        -1.835426         1.725865         3.137937
 C        -2.137587         0.509311         2.369801
 C        -0.829246        -0.235315         2.216399
 H         1.391970         0.695473         0.234675
 H        -1.771847         0.034277        -0.995609
 H        -1.876598        -1.176656         0.176964
 H        -3.565743         1.308910         0.810370
 H        -1.151178         2.448341         0.034331
 H         0.003615         2.704670         2.531641
 H        -1.637676         3.500139         2.112040
 H        -3.051017        -0.130902         2.854885
 H         0.060876        -0.018471         2.944326
 H        -0.964027        -1.256513         2.125850
