19
Iteration:  4212
 O         0.615524         0.326320         0.198903
 C        -0.580793         0.474981         0.774812
 C        -1.860420        -0.029850        -0.046255
 C        -2.489784         0.957383         0.939667
 C        -1.216971         1.851699         0.919581
 C        -0.969976         2.404247         2.292780
 O        -1.891664         1.721808         3.109489
 C        -2.177580         0.488354         2.472551
 C        -0.843287        -0.208620         2.139820
 H         0.731332         0.965599        -0.429198
 H        -1.694266         0.313643        -1.069223
 H        -2.170269        -1.079775        -0.043654
 H        -3.438290         1.267873         0.618529
 H        -1.231151         2.486818        -0.067721
 H         0.079960         2.179533         2.516010
 H        -1.088909         3.588400         2.483288
 H        -2.896014        -0.005261         3.091321
 H        -0.058376         0.041614         2.955403
 H        -1.047693        -1.279786         2.112897
