19
Iteration:  3733charge 0 multiplicity 1
 O         0.718701         0.295269         0.142727
 C        -0.548913         0.356880         0.731740
 C        -1.921423        -0.046209        -0.021990
 C        -2.516072         0.983674         0.946953
 C        -1.260002         1.876390         0.895395
 C        -1.188963         2.560201         2.249748
 O        -1.849996         1.767294         3.195184
 C        -2.088164         0.567635         2.471715
 C        -0.763466        -0.286552         2.153641
 H         1.000508        -0.730591        -0.037806
 H        -1.788517         0.318597        -1.099824
 H        -2.124302        -1.101953        -0.124443
 H        -3.549653         1.485415         0.922004
 H        -0.913626         2.491622        -0.015459
 H        -0.209835         2.818529         2.536780
 H        -1.781800         3.552300         2.109971
 H        -2.840518         0.054147         3.093674
 H        -0.046241        -0.151928         3.029790
 H        -1.092978        -1.366316         2.067938
