19
Iteration:   506charge 0 multiplicity 1
 O         0.676721         0.220548         0.207738
 C        -0.573497         0.457521         0.727039
 C        -1.843459         0.099384        -0.078725
 C        -2.528892         0.956445         0.993460
 C        -1.273636         1.922961         0.883172
 C        -1.049138         2.467705         2.184264
 O        -1.784171         1.681815         3.161526
 C        -2.141354         0.493242         2.444565
 C        -0.958964        -0.232796         2.165077
 H         1.335567         0.141314         0.901721
 H        -1.853237         0.599240        -1.111178
 H        -2.062548        -0.957559        -0.271335
 H        -3.533585         1.275519         0.888794
 H        -1.124607         2.575104         0.015958
 H         0.118224         2.558097         2.478495
 H        -1.465402         3.413407         2.298929
 H        -2.790466        -0.117691         3.033838
 H        -0.179913        -0.095844         2.918847
 H        -1.193135        -1.295391         2.121988
