19
Iteration:  1539
 O         0.715923         0.113184         0.133777
 C        -0.582873         0.430574         0.691541
 C        -1.892843         0.077864        -0.045061
 C        -2.524450         1.007048         1.012482
 C        -1.265484         1.872259         0.909096
 C        -1.168284         2.542629         2.352138
 O        -1.872816         1.709618         3.211889
 C        -2.133944         0.506501         2.390024
 C        -0.750148        -0.254053         2.046504
 H         1.461430         0.470211         0.692993
 H        -2.173045         0.500163        -1.047463
 H        -2.237610        -0.906792        -0.044681
 H        -3.399855         1.569499         0.942454
 H        -0.902391         2.473549         0.069215
 H        -0.156359         2.716584         2.683460
 H        -1.625348         3.562057         2.195717
 H        -2.864334        -0.111073         2.802040
 H         0.024712         0.207221         2.777257
 H        -0.698152        -1.341076         2.128364
