19
Iteration:  4196charge 0 multiplicity 1
 O         0.767536         0.288347         0.196994
 C        -0.615859         0.411621         0.732102
 C        -1.883901         0.015173         0.004078
 C        -2.564307         0.995860         1.032969
 C        -1.257493         1.862621         0.867635
 C        -0.949069         2.516503         2.256127
 O        -1.902885         1.707707         3.106188
 C        -2.191981         0.443943         2.382151
 C        -0.853529        -0.267658         2.176905
 H         0.934664         1.148609        -0.276954
 H        -2.033593         0.350960        -1.037999
 H        -2.166138        -1.044215         0.016659
 H        -3.518040         1.589762         1.189063
 H        -1.180283         2.491107         0.001012
 H         0.076128         2.330202         2.635293
 H        -1.214853         3.494828         2.318494
 H        -2.973419        -0.166905         2.910081
 H        -0.174590        -0.004533         2.950502
 H        -0.685307        -1.359650         2.032640
