19
Iteration:  2886charge 0 multiplicity 1
 O         0.700740         0.136948         0.034597
 C        -0.542359         0.365520         0.705743
 C        -1.873747         0.046115         0.010463
 C        -2.479548         0.960161         1.006905
 C        -1.200048         1.854894         0.916476
 C        -1.233365         2.653495         2.243345
 O        -1.895320         1.792221         3.230136
 C        -2.131686         0.410176         2.506636
 C        -0.779829        -0.203901         2.153888
 H         1.525105         0.460986         0.557309
 H        -1.808491         0.380750        -1.057496
 H        -2.335521        -0.983599        -0.137597
 H        -3.467701         1.342021         0.705335
 H        -1.280262         2.391188        -0.117491
 H        -0.206970         2.859115         2.654393
 H        -1.682416         3.575589         1.941278
 H        -2.799509        -0.216062         3.004762
 H         0.092696         0.127302         2.644368
 H        -0.932490        -1.337111         2.064077
