19
Iteration:  2515charge 0 multiplicity 1
 O         0.677625         0.220166         0.162434
 C        -0.566056         0.409983         0.629833
 C        -1.921618        -0.106116        -0.013848
 C        -2.523908         0.998211         1.024677
 C        -1.299678         1.827991         0.837755
 C        -1.131977         2.550358         2.252569
 O        -1.894174         1.693841         3.220638
 C        -2.072099         0.543015         2.454301
 C        -0.715668        -0.081521         2.081924
 H         1.170212         0.239887         1.015875
 H        -2.072322         0.192288        -1.055261
 H        -1.993752        -1.269452         0.041315
 H        -3.510318         1.565678         0.912109
 H        -1.239188         2.485821        -0.068784
 H        -0.057487         2.548185         2.648409
 H        -1.531456         3.530660         2.358223
 H        -2.656859        -0.036930         3.126540
 H         0.066663         0.147001         2.754315
 H        -0.836461        -1.223158         1.939510
