19
Iteration:  4796charge 0 multiplicity 1
 O         0.756276         0.411473         0.115576
 C        -0.587017         0.439843         0.683192
 C        -1.880446        -0.110117         0.002984
 C        -2.537217         1.014226         1.001566
 C        -1.175438         1.824077         0.899172
 C        -1.036185         2.508496         2.256073
 O        -1.801351         1.710393         3.156720
 C        -2.236630         0.493483         2.459422
 C        -0.942878        -0.260290         2.151465
 H         1.419704        -0.292284         0.614069
 H        -2.123620         0.285496        -0.990353
 H        -2.335358        -1.084790         0.028100
 H        -3.557748         1.446661         0.827264
 H        -1.159162         2.520450         0.066827
 H         0.057108         2.673767         2.421379
 H        -1.483407         3.617408         2.347466
 H        -3.013935         0.007386         3.013909
 H        -0.164459        -0.202104         2.958871
 H        -1.058134        -1.324482         1.918819
