19
Iteration:  4836
 O         0.731241         0.191392         0.325317
 C        -0.600872         0.398380         0.727316
 C        -1.903804         0.070488        -0.096839
 C        -2.505020         1.003477         1.031870
 C        -1.283439         1.896677         0.931091
 C        -1.200559         2.609761         2.186501
 O        -1.714212         1.700001         3.127386
 C        -2.130381         0.451090         2.452228
 C        -0.816926        -0.271771         2.133341
 H         0.589139         0.065273        -0.569364
 H        -1.937074         0.514154        -1.173618
 H        -2.166394        -1.065529        -0.307195
 H        -3.503001         1.365160         0.838915
 H        -1.145016         2.514816         0.090328
 H        -0.225994         2.887569         2.555778
 H        -1.758123         3.491743         2.019526
 H        -2.855676         0.010294         3.100349
 H        -0.074236        -0.061163         2.866973
 H        -0.789925        -1.376191         1.973952
