19
Iteration:  3290
 O         0.684884         0.258306         0.203793
 C        -0.593204         0.408889         0.731538
 C        -1.925302        -0.047845        -0.056143
 C        -2.515825         0.934895         0.968745
 C        -1.314163         1.915375         0.832217
 C        -1.159793         2.590786         2.157711
 O        -1.841183         1.776243         3.206649
 C        -2.008403         0.521491         2.483324
 C        -0.772019        -0.293363         2.154775
 H         1.161951        -0.073235         0.879599
 H        -1.978523         0.238801        -1.137686
 H        -2.145850        -1.080192         0.057491
 H        -3.610563         1.147303         0.838571
 H        -1.210349         2.429005        -0.140218
 H        -0.150289         2.740148         2.465891
 H        -1.566236         3.673456         2.305449
 H        -2.719395        -0.055407         3.103380
 H         0.054265        -0.034248         2.845124
 H        -0.764766        -1.388124         1.961133
