19
Iteration:  1528
 O         0.709953         0.135663         0.042860
 C        -0.556325         0.322465         0.666130
 C        -1.924319         0.003874        -0.038334
 C        -2.449731         1.063196         0.955750
 C        -1.188941         1.872472         0.988128
 C        -1.183815         2.548616         2.349667
 O        -1.919883         1.705039         3.256116
 C        -2.090157         0.542888         2.397841
 C        -0.810615        -0.187788         2.077083
 H         1.194945         0.589567         0.645892
 H        -1.768624         0.488808        -1.062859
 H        -2.276555        -0.971607        -0.045713
 H        -3.464895         1.239650         0.797630
 H        -1.098104         2.531645         0.103715
 H        -0.178420         2.699610         2.701985
 H        -1.765739         3.551030         2.429791
 H        -2.840978         0.063945         2.927148
 H        -0.022699         0.146743         2.880285
 H        -0.867913        -1.279441         2.091447
