19
Iteration:  2414charge 0 multiplicity 1
 O         0.600090         0.167532         0.107434
 C        -0.607011         0.509138         0.793737
 C        -1.807216        -0.069775        -0.058274
 C        -2.562352         0.858345         0.970940
 C        -1.344302         1.858351         0.879616
 C        -1.033838         2.530908         2.237874
 O        -1.903089         1.772223         3.153653
 C        -2.092468         0.486272         2.464168
 C        -0.703203        -0.070350         2.156323
 H         1.248124         0.491241         0.630747
 H        -1.879221         0.504630        -0.997771
 H        -2.023261        -1.245650         0.010238
 H        -3.541496         1.208378         0.685714
 H        -1.478404         2.445522         0.052755
 H        -0.050740         2.203464         2.700769
 H        -1.108284         3.590738         2.471741
 H        -2.927254        -0.005495         3.038800
 H         0.190148         0.259825         2.752756
 H        -0.678953        -1.216282         2.151584
