19
Iteration:  4013charge 0 multiplicity 1
 O         0.718571         0.200337         0.270050
 C        -0.588221         0.427598         0.813190
 C        -1.892659         0.088159        -0.008017
 C        -2.562087         1.082739         0.998858
 C        -1.205030         1.829272         0.949767
 C        -1.170244         2.611327         2.196606
 O        -1.790174         1.634636         3.142963
 C        -2.123848         0.484885         2.394657
 C        -0.800332        -0.295806         2.058584
 H         0.827933         0.485879        -0.659197
 H        -1.785800         0.279403        -1.054631
 H        -2.217367        -0.991631        -0.056396
 H        -3.589416         1.533868         0.971246
 H        -0.987075         2.462472        -0.044831
 H        -0.224752         2.788974         2.657171
 H        -1.810297         3.540649         2.039187
 H        -2.826475        -0.196193         2.872724
 H        -0.099790        -0.090679         2.850578
 H        -0.921090        -1.406015         1.995368
