19
Iteration:  3200charge 0 multiplicity 1
 O         0.713224         0.089372         0.072998
 C        -0.547806         0.389482         0.722387
 C        -1.915732        -0.031666        -0.003916
 C        -2.473869         0.949240         0.992501
 C        -1.210649         1.854502         0.865446
 C        -1.177942         2.580828         2.278589
 O        -1.932801         1.705189         3.194491
 C        -2.132547         0.530047         2.448874
 C        -0.722747        -0.068210         2.136654
 H         1.337228         0.637954         0.460035
 H        -2.046390         0.488895        -0.956126
 H        -2.224522        -1.075663         0.019264
 H        -3.439506         1.453091         1.047174
 H        -1.237009         2.477966         0.073277
 H        -0.228477         2.825705         2.700602
 H        -1.740785         3.590895         2.109820
 H        -2.893018        -0.075996         2.894114
 H        -0.005949         0.210967         2.988604
 H        -0.726874        -1.200221         2.104826
