19
Iteration:  2749charge 0 multiplicity 1
 O         0.698351         0.347653         0.125623
 C        -0.549571         0.366114         0.747346
 C        -1.921247        -0.052582         0.080193
 C        -2.516006         1.034860         0.999051
 C        -1.190630         1.741077         0.941573
 C        -1.233639         2.567995         2.197381
 O        -1.854927         1.779759         3.178597
 C        -2.094793         0.531996         2.426499
 C        -0.745445        -0.268421         2.108269
 H         1.039745        -0.509954        -0.361098
 H        -1.910080         0.144324        -1.026975
 H        -2.149001        -1.101658         0.164135
 H        -3.513409         1.320039         0.787316
 H        -0.957438         2.420367         0.099989
 H        -0.221809         2.976602         2.493189
 H        -1.812503         3.368139         2.001688
 H        -2.894213        -0.052489         2.992195
 H        -0.105675         0.168553         2.890920
 H        -0.846355        -1.309356         2.104850
