19
Iteration:  1971charge 0 multiplicity 1
 O         0.640400         0.338489         0.022777
 C        -0.509104         0.372896         0.730836
 C        -1.944671        -0.063293         0.042414
 C        -2.527909         0.990443         0.926945
 C        -1.166300         1.758181         0.970622
 C        -1.127525         2.572451         2.264598
 O        -1.895316         1.756730         3.174242
 C        -2.154701         0.586908         2.427543
 C        -0.741111        -0.247404         2.162661
 H         1.186924        -0.399529         0.570223
 H        -1.954760         0.080477        -0.994611
 H        -2.223459        -1.172827         0.135598
 H        -3.532513         1.410174         0.930368
 H        -1.035653         2.424597         0.090111
 H        -0.121223         2.931789         2.615331
 H        -1.627112         3.457349         2.082448
 H        -2.766670        -0.088265         3.007410
 H         0.049162         0.027037         2.896618
 H        -0.737882        -1.320794         2.212830
