19
Iteration:  1949
 O         0.653286         0.214786         0.018850
 C        -0.534364         0.432486         0.744831
 C        -1.758348        -0.088631         0.020170
 C        -2.483491         0.989434         1.033958
 C        -1.256771         1.917431         0.842660
 C        -1.179786         2.608566         2.269854
 O        -1.819028         1.689799         3.207009
 C        -2.190553         0.523951         2.467298
 C        -0.852553        -0.161362         2.147788
 H         1.017562        -0.528540         0.364424
 H        -1.762613         0.225887        -0.969867
 H        -2.126177        -1.164718        -0.059126
 H        -3.533869         1.233610         0.871208
 H        -1.278442         2.480602        -0.104292
 H        -0.085971         2.776307         2.498636
 H        -1.571953         3.597854         2.338595
 H        -2.844364        -0.085306         3.087026
 H        -0.179862         0.081005         2.988596
 H        -0.805512        -1.239902         2.062134
