19
Iteration:   731charge 0 multiplicity 1
 O         0.688736         0.264774         0.047319
 C        -0.527705         0.373391         0.720929
 C        -1.843999         0.070392         0.003537
 C        -2.485754         1.022589         0.985939
 C        -1.120933         1.851283         0.942870
 C        -1.076703         2.545210         2.331049
 O        -1.957586         1.734535         3.183083
 C        -2.206729         0.493204         2.387834
 C        -0.866307        -0.246893         2.152815
 H         0.740118        -0.629675         0.007218
 H        -2.026862         0.263866        -1.115892
 H        -2.158334        -0.951251         0.108576
 H        -3.433098         1.500613         0.807964
 H        -1.041843         2.367709         0.001774
 H        -0.000280         2.459758         2.695813
 H        -1.231060         3.531188         2.280621
 H        -2.886032        -0.137042         3.037942
 H        -0.224378         0.147075         2.989009
 H        -0.794891        -1.336089         2.211109
