19
Iteration:  3897
 O         0.675867         0.203553         0.102184
 C        -0.569871         0.426615         0.761310
 C        -1.858679         0.036300        -0.032650
 C        -2.510183         1.035518         0.960357
 C        -1.302588         1.895946         0.948298
 C        -1.029545         2.594561         2.301129
 O        -1.843323         1.664669         3.089001
 C        -2.118659         0.501110         2.401511
 C        -0.894989        -0.295599         2.219286
 H         1.355904         0.781864         0.569484
 H        -1.871156         0.259544        -1.123293
 H        -2.167604        -1.003305        -0.078467
 H        -3.561966         1.208468         0.727988
 H        -1.231712         2.378379         0.012765
 H        -0.013087         2.569861         2.772665
 H        -1.560540         3.538055         2.307022
 H        -2.757197        -0.075499         3.096780
 H         0.051698         0.004081         2.786298
 H        -1.046962        -1.380641         2.167051
