19
Iteration:   869charge 0 multiplicity 1
 O         0.640779         0.092355         0.090534
 C        -0.620294         0.394448         0.778762
 C        -1.900400         0.087988        -0.004668
 C        -2.562988         1.007331         0.897429
 C        -1.185457         1.897665         0.980875
 C        -1.056105         2.540470         2.380252
 O        -1.906121         1.727715         3.139236
 C        -2.140934         0.493118         2.356894
 C        -0.734373        -0.234151         2.097671
 H         1.434477         0.634085         0.512671
 H        -1.753233         0.504595        -0.959210
 H        -2.205314        -0.953028        -0.192322
 H        -3.625947         1.416939         0.854931
 H        -1.022298         2.438473         0.026815
 H        -0.123131         2.652869         2.850106
 H        -1.412968         3.651223         2.428664
 H        -2.867744         0.042025         3.067481
 H        -0.062176         0.066319         2.884485
 H        -0.611018        -1.318009         2.010437
