19
Iteration:  4312charge 0 multiplicity 1
 O         0.703615         0.181188         0.181985
 C        -0.543159         0.414416         0.730398
 C        -1.855713         0.050955         0.033589
 C        -2.531496         1.017026         0.998324
 C        -1.183596         1.823331         0.914812
 C        -1.132584         2.612215         2.255956
 O        -1.893589         1.694515         3.211345
 C        -2.130659         0.431239         2.418215
 C        -0.825882        -0.226501         2.041301
 H         0.910581         0.933798        -0.445524
 H        -1.907781         0.319096        -0.995591
 H        -2.213549        -0.949072         0.012686
 H        -3.464673         1.558939         0.870772
 H        -1.146029         2.527573         0.049057
 H        -0.127997         2.705238         2.634359
 H        -1.681791         3.525901         2.261055
 H        -2.914767        -0.128613         2.982591
 H        -0.016714        -0.174480         2.789084
 H        -0.852745        -1.301120         1.856831
