19
Iteration:  3872charge 0 multiplicity 1
 O         0.679965         0.238259         0.183013
 C        -0.567083         0.413320         0.698967
 C        -1.895605         0.074056        -0.040986
 C        -2.479918         1.013787         1.088236
 C        -1.178911         1.780508         0.876018
 C        -1.133116         2.558729         2.156497
 O        -1.861794         1.721645         3.287200
 C        -2.201820         0.490021         2.429147
 C        -0.801555        -0.217225         2.056485
 H         1.173642        -0.213882         0.783374
 H        -1.911044         0.545901        -1.051023
 H        -2.061172        -1.076467        -0.321497
 H        -3.416783         1.546017         0.854591
 H        -1.041825         2.403714        -0.129149
 H        -0.118894         2.732956         2.673431
 H        -1.724248         3.402282         1.938007
 H        -2.829732        -0.217751         2.951282
 H         0.031323        -0.023945         2.718808
 H        -0.991614        -1.305095         1.905132
