19
Iteration:  2347charge 0 multiplicity 1
 O         0.613076         0.228205         0.069966
 C        -0.567511         0.431836         0.756327
 C        -1.865206        -0.066707         0.004902
 C        -2.502076         0.936250         0.949216
 C        -1.232287         1.853855         0.874611
 C        -1.214714         2.642542         2.207183
 O        -1.738347         1.700362         3.209025
 C        -2.148768         0.515544         2.457173
 C        -0.804208        -0.206363         2.165514
 H         1.400929         0.210438         0.797752
 H        -1.720638         0.378850        -1.037812
 H        -1.994568        -1.163313         0.332615
 H        -3.468028         1.248800         0.714295
 H        -1.183824         2.419033         0.004477
 H        -0.139135         2.881413         2.479883
 H        -1.921763         3.509314         2.301676
 H        -2.942384         0.003438         3.023248
 H         0.053811         0.165970         2.857561
 H        -0.957789        -1.288448         2.090464
