19
Iteration:  1425
 O         0.640998         0.301996         0.158171
 C        -0.582011         0.434246         0.774247
 C        -1.840498         0.049861        -0.057122
 C        -2.523044         0.967605         0.955104
 C        -1.274540         1.939531         0.946633
 C        -1.130528         2.544443         2.216884
 O        -1.732627         1.732900         3.190229
 C        -2.200285         0.407382         2.369751
 C        -0.836656        -0.335203         2.136900
 H         1.417309         0.019858         0.852463
 H        -1.766003         0.264187        -1.094176
 H        -2.326666        -1.035439         0.012594
 H        -3.516955         1.440936         0.753307
 H        -1.183574         2.667028         0.147300
 H        -0.012642         2.564861         2.515384
 H        -1.389043         3.575006         2.244053
 H        -3.038295         0.021151         3.055148
 H        -0.061241        -0.219401         2.908158
 H        -0.901232        -1.439710         1.932454
