19
Iteration:  4098
 O         0.762332         0.274175         0.200363
 C        -0.569858         0.388889         0.706253
 C        -1.959139        -0.033136         0.008741
 C        -2.526318         1.039715         1.006924
 C        -1.158584         1.810057         0.958951
 C        -1.054454         2.528439         2.370837
 O        -1.927852         1.759763         3.111260
 C        -2.168550         0.452978         2.376907
 C        -0.773818        -0.192160         2.059531
 H         0.658012         0.239058        -0.794825
 H        -1.995219         0.382303        -0.994718
 H        -2.304948        -1.046009         0.025662
 H        -3.612624         1.336434         0.715985
 H        -1.128952         2.398156         0.033923
 H        -0.066060         2.499075         2.919193
 H        -1.477642         3.634290         2.263674
 H        -2.866420        -0.251799         2.983754
 H        -0.087905         0.173358         2.797553
 H        -0.830943        -1.335281         2.223519
