19
Iteration:  4735
 O         0.673946         0.037441         0.026252
 C        -0.465525         0.445550         0.687817
 C        -1.805306         0.075991         0.021815
 C        -2.531004         0.996595         0.959294
 C        -1.229402         1.856860         0.996041
 C        -1.148786         2.514245         2.341090
 O        -1.938880         1.728885         3.262907
 C        -2.178150         0.507815         2.383118
 C        -0.773244        -0.148800         2.102963
 H         1.269515         0.841202        -0.217500
 H        -2.005082         0.512856        -0.985807
 H        -2.180522        -1.051785         0.071803
 H        -3.517719         1.454562         0.810988
 H        -1.109298         2.661001         0.140840
 H        -0.065898         2.556510         2.631601
 H        -1.521227         3.464823         2.269951
 H        -3.062832        -0.097005         2.855579
 H        -0.005035         0.150010         2.840654
 H        -0.881559        -1.235086         2.064592
