19
Iteration:  4149
 O         0.691284         0.142877         0.224169
 C        -0.558534         0.430376         0.750848
 C        -1.797854         0.064596        -0.042188
 C        -2.520244         1.011345         1.046257
 C        -1.259058         1.908788         0.970321
 C        -1.176289         2.650915         2.237112
 O        -1.782866         1.646895         3.147137
 C        -2.188388         0.517265         2.380834
 C        -0.802822        -0.279987         2.095127
 H         0.703291         0.159765        -0.666445
 H        -1.930146         0.477629        -1.116812
 H        -2.021482        -1.022100        -0.164651
 H        -3.544080         1.260146         0.843849
 H        -1.195941         2.555960         0.155046
 H        -0.136675         2.790120         2.552048
 H        -1.836696         3.484602         2.371025
 H        -2.955741        -0.099586         2.856624
 H        -0.041167        -0.035959         2.865344
 H        -0.825815        -1.341527         2.124125
