19
Iteration:  1572
 O         0.634227         0.282903         0.149913
 C        -0.545596         0.454123         0.765038
 C        -1.808756         0.026589        -0.038760
 C        -2.551191         0.963489         0.973456
 C        -1.319783         1.888430         0.895918
 C        -1.061205         2.498164         2.273262
 O        -1.782560         1.717354         3.165957
 C        -2.178043         0.499437         2.396550
 C        -0.858718        -0.286539         2.119166
 H         1.287251         0.025688         0.720067
 H        -1.938022         0.592154        -0.990066
 H        -1.970764        -1.016319        -0.063154
 H        -3.519877         1.346530         0.877448
 H        -1.094126         2.526779         0.044623
 H        -0.030679         2.406414         2.558435
 H        -1.399158         3.559039         2.395479
 H        -2.946221         0.011804         2.932406
 H         0.006318        -0.107711         2.850260
 H        -1.038821        -1.362969         2.014298
