19
Iteration:   252charge 0 multiplicity 1
 O         0.694484         0.144110         0.089322
 C        -0.551177         0.362580         0.693393
 C        -1.923217         0.056493        -0.018501
 C        -2.436722         1.014668         1.048071
 C        -1.082712         1.843325         0.960651
 C        -1.087332         2.534062         2.322117
 O        -1.992271         1.762715         3.101936
 C        -2.144254         0.525116         2.385418
 C        -0.845486        -0.255757         2.144571
 H         1.392485         0.850499         0.432968
 H        -2.039685         0.520720        -1.051591
 H        -2.321749        -0.968247         0.036323
 H        -3.434378         1.375423         0.814098
 H        -1.014343         2.556172         0.133368
 H        -0.171125         2.637834         2.877173
 H        -1.605019         3.531532         2.204671
 H        -3.005249         0.020170         2.951670
 H        -0.082528        -0.167039         2.934775
 H        -0.997690        -1.331003         2.183951
