19
Iteration:  3159
 O         0.638073         0.220780         0.093079
 C        -0.525641         0.496242         0.769850
 C        -1.855524        -0.040593         0.035903
 C        -2.522051         0.911061         1.054100
 C        -1.214797         1.867139         0.863565
 C        -1.170587         2.614405         2.195716
 O        -1.845007         1.685036         3.140159
 C        -2.103784         0.535018         2.381648
 C        -0.812125        -0.224516         2.199343
 H         1.439769         0.032616         0.715273
 H        -1.741691         0.384813        -0.979088
 H        -2.078505        -1.061141        -0.060359
 H        -3.475918         1.360078         0.804447
 H        -1.395390         2.542794        -0.144167
 H        -0.183262         2.791876         2.663173
 H        -1.828522         3.476896         2.277882
 H        -2.823016         0.017892         2.959072
 H        -0.004960        -0.182287         2.886265
 H        -1.037804        -1.254130         2.152689
