19
Iteration:  4865charge 0 multiplicity 1
 O         0.736670         0.093048         0.126125
 C        -0.583707         0.358281         0.678280
 C        -1.872891        -0.061360         0.008220
 C        -2.500817         1.056942         1.036598
 C        -1.260005         1.900852         0.916284
 C        -1.145485         2.580541         2.259669
 O        -1.915604         1.722929         3.201257
 C        -2.135963         0.502286         2.460418
 C        -0.770624        -0.148808         2.064883
 H         1.161445         0.942717         0.187521
 H        -1.876935         0.377267        -0.936694
 H        -2.059780        -1.087190         0.041307
 H        -3.524371         1.428437         0.812201
 H        -1.085156         2.610756        -0.007175
 H        -0.104854         2.679918         2.720967
 H        -1.496880         3.679096         2.028507
 H        -2.904524        -0.183627         3.029893
 H        -0.015899        -0.014108         2.879950
 H        -0.892466        -1.255042         1.927250
