19
Iteration:   640charge 0 multiplicity 1
 O         0.690791         0.306967         0.192545
 C        -0.659304         0.405780         0.688653
 C        -1.955262         0.014615        -0.112763
 C        -2.492921         1.028922         0.978419
 C        -1.118315         1.797070         0.912967
 C        -1.026883         2.582077         2.226228
 O        -1.793565         1.676854         3.222362
 C        -2.219657         0.498677         2.400492
 C        -0.864503        -0.298531         2.152239
 H         1.263674         0.221432         0.961373
 H        -1.958310         0.367893        -1.107317
 H        -2.340912        -1.056947        -0.231303
 H        -3.491199         1.604520         0.897041
 H        -1.052707         2.503541         0.024516
 H        -0.081842         2.754298         2.809917
 H        -1.469431         3.479707         2.196433
 H        -3.019502        -0.017064         2.977627
 H        -0.152548        -0.042373         2.926003
 H        -0.902983        -1.392975         1.962570
