19
Iteration:   565
 O         0.643922         0.150243         0.039279
 C        -0.552849         0.406019         0.772321
 C        -1.939363         0.092821        -0.015500
 C        -2.468417         1.099020         0.984595
 C        -1.162971         1.848952         0.891842
 C        -1.040412         2.500538         2.320206
 O        -2.046785         1.705008         3.143580
 C        -2.213922         0.506656         2.373349
 C        -0.640845        -0.285411         2.188591
 H         1.519283         0.263017         0.637336
 H        -1.926704         0.489413        -1.009773
 H        -2.338544        -0.976405        -0.009836
 H        -3.409731         1.768492         0.970083
 H        -1.090505         2.494248        -0.023119
 H         0.011908         2.552235         2.842765
 H        -1.447880         3.578837         2.427149
 H        -2.970647        -0.152106         2.908231
 H         0.043084         0.175400         2.910477
 H        -0.622712        -1.398338         2.239485
