19
Iteration:  1644
 O         0.705460         0.217234         0.131016
 C        -0.601037         0.426820         0.688498
 C        -1.802086         0.022981        -0.077162
 C        -2.524308         0.916293         0.968826
 C        -1.241497         1.875680         0.923912
 C        -1.109628         2.515701         2.327482
 O        -1.863693         1.713878         3.242606
 C        -2.164612         0.549484         2.436947
 C        -0.810441        -0.128271         2.135663
 H         0.657662        -0.533857        -0.368071
 H        -1.873549         0.493999        -1.133183
 H        -1.940426        -1.106701        -0.191597
 H        -3.574517         1.229259         0.751253
 H        -1.251319         2.597897         0.100976
 H         0.021301         2.427428         2.603923
 H        -1.437152         3.586020         2.400889
 H        -2.861236        -0.091096         2.996882
 H        -0.105908         0.091363         2.944169
 H        -0.952162        -1.223976         2.085015
