19
Iteration:  2539charge 0 multiplicity 1
 O         0.668933         0.278636         0.022468
 C        -0.519896         0.410956         0.714927
 C        -1.891505        -0.053116         0.070378
 C        -2.554286         0.933533         1.032342
 C        -1.259129         1.844280         0.913625
 C        -1.040292         2.510456         2.258342
 O        -1.954853         1.787718         3.109884
 C        -2.156299         0.453811         2.411130
 C        -0.754238        -0.185813         2.192359
 H         1.274960         0.580614         0.631437
 H        -1.996624         0.231868        -1.007855
 H        -2.093775        -1.120358         0.124759
 H        -3.618464         1.264173         0.956087
 H        -1.027192         2.573283         0.032486
 H         0.005216         2.414277         2.708680
 H        -1.271193         3.523028         2.267989
 H        -2.833068         0.023676         3.099881
 H        -0.075552         0.198201         2.917706
 H        -0.583796        -1.212367         2.037472
