19
Iteration:  3740charge 0 multiplicity 1
 O         0.731760         0.274760         0.096731
 C        -0.577215         0.354486         0.710251
 C        -1.846055        -0.019226        -0.025989
 C        -2.556766         1.023536         0.933718
 C        -1.321349         1.799323         0.917188
 C        -1.197878         2.599442         2.251956
 O        -1.803896         1.776784         3.226476
 C        -2.157617         0.534834         2.478500
 C        -0.774461        -0.267507         2.155968
 H         1.179672        -0.622680         0.333981
 H        -1.710197         0.194398        -1.081011
 H        -2.137876        -1.184029         0.011661
 H        -3.432305         1.558319         0.674544
 H        -0.930358         2.521765         0.103984
 H        -0.037280         2.684591         2.454286
 H        -1.668300         3.553765         2.292742
 H        -2.933011         0.028096         3.025884
 H        -0.043987         0.059275         2.886964
 H        -0.852432        -1.402117         2.079843
