19
Iteration:  4922charge 0 multiplicity 1
 O         0.756396         0.336647         0.159995
 C        -0.584716         0.387906         0.697194
 C        -1.879341        -0.071653        -0.010905
 C        -2.499202         0.943838         0.976204
 C        -1.235912         1.778925         0.879943
 C        -1.057916         2.550517         2.289195
 O        -1.949912         1.788774         3.147101
 C        -2.145236         0.537126         2.475012
 C        -0.785105        -0.181712         2.197262
 H         0.584322        -0.156469        -0.771808
 H        -2.210650         0.159441        -1.058113
 H        -2.089655        -1.158271         0.106260
 H        -3.490929         1.275002         0.729932
 H        -1.171570         2.308739        -0.063205
 H        -0.042834         2.308443         2.749840
 H        -1.208482         3.630839         2.189599
 H        -2.927917         0.011898         3.004885
 H        -0.098676         0.106243         2.961569
 H        -0.889460        -1.314566         2.208820
