19
Iteration:  3768
 O         0.630288         0.181801         0.152728
 C        -0.592015         0.492535         0.706593
 C        -1.895320        -0.030091         0.026933
 C        -2.540878         0.938663         1.033278
 C        -1.220973         1.876240         0.830911
 C        -1.062093         2.492406         2.248730
 O        -1.868042         1.699093         3.096932
 C        -2.105641         0.496389         2.424519
 C        -0.793673        -0.142375         2.166825
 H         1.385866         0.640250         0.796380
 H        -1.908962         0.434889        -0.979406
 H        -2.003032        -1.051680         0.072129
 H        -3.540011         1.420084         0.879055
 H        -0.991491         2.615939         0.145615
 H        -0.076805         2.575127         2.584141
 H        -1.543063         3.544629         2.354842
 H        -2.951244        -0.080040         2.894941
 H        -0.097683         0.014637         3.048611
 H        -0.841169        -1.191908         1.961017
