19
Iteration:  2349
 O         0.611049         0.238936         0.071635
 C        -0.584752         0.424284         0.749022
 C        -1.869271        -0.056550         0.029855
 C        -2.489448         0.949557         0.934372
 C        -1.219042         1.867012         0.899608
 C        -1.222939         2.642842         2.202865
 O        -1.747951         1.696545         3.205196
 C        -2.128160         0.507816         2.441020
 C        -0.796672        -0.220284         2.176098
 H         1.363921         0.226933         0.757021
 H        -1.762860         0.308732        -1.001731
 H        -2.011419        -1.158536         0.403229
 H        -3.544657         1.237422         0.689761
 H        -1.127389         2.408503        -0.058808
 H        -0.122104         2.888651         2.498187
 H        -1.879163         3.496375         2.166125
 H        -2.919997        -0.054452         3.013400
 H         0.013066         0.149043         2.770114
 H        -0.989905        -1.338892         2.147693
