19
Iteration:  1982
 O         0.687854         0.368665         0.068740
 C        -0.599471         0.350463         0.779502
 C        -1.964687        -0.079345         0.028771
 C        -2.481698         1.056426         1.082323
 C        -1.163375         1.785360         0.849830
 C        -1.115800         2.534551         2.197337
 O        -1.953897         1.744433         3.115899
 C        -2.110260         0.494739         2.466858
 C        -0.695217        -0.236443         2.150060
 H         1.367209        -0.242614         0.468772
 H        -1.935187         0.304909        -0.949606
 H        -2.592203        -1.010092         0.182823
 H        -3.436790         1.564641         0.920555
 H        -1.070849         2.335782        -0.113334
 H        -0.099429         2.597294         2.696653
 H        -1.540396         3.440057         2.104268
 H        -2.878639         0.005367         3.059538
 H        -0.059413         0.127560         2.952272
 H        -0.827162        -1.288954         2.074594
