19
Iteration:   928charge 0 multiplicity 1
 O         0.622705         0.291865         0.119494
 C        -0.631447         0.406787         0.742346
 C        -1.874879         0.005692        -0.047849
 C        -2.455613         1.079206         1.006714
 C        -1.158214         1.862717         0.911757
 C        -1.025651         2.481126         2.300436
 O        -1.898885         1.684712         3.141265
 C        -2.125914         0.491193         2.393898
 C        -0.858241        -0.260375         2.153790
 H         1.207069         0.080178         0.779747
 H        -1.822108         0.356694        -1.142880
 H        -2.266920        -0.968774         0.051923
 H        -3.404892         1.536358         0.949523
 H        -1.101498         2.477271         0.039792
 H        -0.026198         2.453828         2.570384
 H        -1.436865         3.497744         2.141066
 H        -2.911496        -0.100528         2.889669
 H        -0.134187         0.087641         2.914152
 H        -1.021398        -1.333053         2.110092
