19
Iteration:  2538charge 0 multiplicity 1
 O         0.670438         0.276467         0.028463
 C        -0.524566         0.414363         0.710747
 C        -1.896068        -0.048519         0.069810
 C        -2.549968         0.927217         1.028251
 C        -1.255996         1.850137         0.915905
 C        -1.041457         2.506887         2.258464
 O        -1.954295         1.789891         3.114885
 C        -2.152281         0.453678         2.413387
 C        -0.758606        -0.182934         2.187490
 H         1.313990         0.578886         0.662821
 H        -1.996433         0.234172        -1.004561
 H        -2.139574        -1.161492         0.168361
 H        -3.635582         1.250169         0.938720
 H        -1.039019         2.577069         0.041177
 H         0.017683         2.416095         2.709099
 H        -1.285982         3.519248         2.233844
 H        -2.839037         0.010752         3.069884
 H        -0.046060         0.216578         2.849536
 H        -0.562935        -1.245258         2.033066
