19
Iteration:  3192
 O         0.706206         0.087547         0.091799
 C        -0.520668         0.380767         0.663163
 C        -1.884641        -0.015614         0.008003
 C        -2.555125         0.990451         0.985243
 C        -1.238978         1.841480         0.899808
 C        -1.211417         2.573603         2.279481
 O        -1.896327         1.694110         3.221683
 C        -2.108725         0.559859         2.412826
 C        -0.735455        -0.123335         2.157093
 H         1.368365         0.568566         0.460291
 H        -1.802501         0.249955        -1.067931
 H        -2.112496        -1.033228         0.065677
 H        -3.481304         1.565430         0.877608
 H        -1.226451         2.612258        -0.016270
 H        -0.215090         2.889135         2.658679
 H        -1.791857         3.536298         2.141858
 H        -2.757447        -0.112615         2.941886
 H         0.064773         0.372766         2.659744
 H        -0.840424        -1.145748         2.406087
