19
Iteration:  1774
 O         0.712547         0.307276         0.003285
 C        -0.523357         0.401804         0.707383
 C        -1.856561        -0.048656         0.025473
 C        -2.570436         0.980334         0.960756
 C        -1.197183         1.843994         0.849171
 C        -1.083670         2.579008         2.288982
 O        -1.823024         1.713424         3.173931
 C        -2.215038         0.471393         2.467049
 C        -0.852141        -0.232460         2.190324
 H         1.423399         0.017290         0.752959
 H        -1.923386         0.307218        -0.902042
 H        -2.326994        -1.020938         0.154372
 H        -3.588261         1.436562         0.845051
 H        -1.239470         2.509212        -0.009870
 H        -0.076356         2.644902         2.701614
 H        -1.582855         3.639299         2.258795
 H        -2.900167        -0.082153         3.129510
 H        -0.263661         0.114264         3.066409
 H        -1.064010        -1.333494         2.298577
