19
Iteration:    81
 O         0.749512         0.350642         0.084190
 C        -0.551281         0.365773         0.744831
 C        -1.967231         0.006977        -0.082260
 C        -2.448017         1.045056         0.882317
 C        -1.082373         1.788488         0.937419
 C        -1.083892         2.489650         2.337074
 O        -1.891149         1.671281         3.213448
 C        -2.219559         0.581791         2.467021
 C        -0.894774        -0.242970         2.228476
 H         0.929813        -0.529235        -0.152897
 H        -1.693619         0.464132        -1.151255
 H        -2.558147        -0.934600        -0.145111
 H        -3.338523         1.626029         0.529877
 H        -0.923935         2.468152         0.070000
 H        -0.044620         2.783770         2.703130
 H        -1.580290         3.361602         2.216354
 H        -3.006738        -0.048214         2.991646
 H        -0.133574        -0.156304         3.047979
 H        -1.308338        -1.291482         1.967431
