19
Iteration:   864
 O         0.642757         0.108072         0.087608
 C        -0.591109         0.354087         0.746170
 C        -1.903115         0.045691        -0.023721
 C        -2.563263         1.031293         0.928716
 C        -1.192392         1.909097         0.951296
 C        -1.061163         2.542152         2.380409
 O        -1.897001         1.736940         3.152498
 C        -2.158094         0.502633         2.374439
 C        -0.752216        -0.241674         2.100862
 H         1.264598         0.584606         0.646525
 H        -1.557867         0.622258        -0.978341
 H        -2.171644        -1.010267        -0.229565
 H        -3.526150         1.491858         0.896858
 H        -1.165929         2.558791         0.053025
 H        -0.021753         2.657678         2.954706
 H        -1.479441         3.500433         2.414003
 H        -2.908026         0.034035         2.995658
 H        -0.045601         0.161683         2.881607
 H        -0.565842        -1.342065         2.031628
