19
Iteration:  3595charge 0 multiplicity 1
 O         0.741939         0.237098         0.151018
 C        -0.577832         0.434421         0.748871
 C        -1.870873        -0.025178         0.104464
 C        -2.502847         0.971112         1.042314
 C        -1.303407         1.916558         0.760927
 C        -1.213616         2.641935         2.142921
 O        -1.780295         1.658715         3.151974
 C        -2.137363         0.458859         2.419072
 C        -0.779431        -0.187728         2.202102
 H         1.028608        -0.589311         0.460470
 H        -1.881346         0.313925        -0.985663
 H        -2.218470        -1.107788         0.061131
 H        -3.541888         1.434993         0.976683
 H        -1.321445         2.447902        -0.106121
 H        -0.124513         2.716316         2.518142
 H        -1.658657         3.570082         2.197142
 H        -3.039329         0.000442         2.917305
 H        -0.095900         0.138899         2.995321
 H        -0.797156        -1.267654         2.080337
