19
Iteration:    16charge 0 multiplicity 1
 O         0.805600         0.242981         0.263950
 C        -0.633377         0.297043         0.608231
 C        -1.930980         0.082617        -0.152260
 C        -2.542830         1.016847         1.033158
 C        -1.219516         1.786229         0.908906
 C        -0.950339         2.519924         2.272312
 O        -1.887514         1.708415         3.262409
 C        -2.214214         0.534007         2.449638
 C        -0.898101        -0.195818         1.982350
 H         1.192230         0.179167         1.136343
 H        -1.911456         0.841015        -1.064105
 H        -2.356277        -0.868303        -0.533005
 H        -3.497690         1.536009         0.895377
 H        -1.296197         2.402335         0.002066
 H         0.092933         2.552308         2.758466
 H        -1.298099         3.517330         2.294374
 H        -2.936290        -0.086339         3.050694
 H        -0.002596         0.057657         2.647148
 H        -0.897695        -1.340300         2.175118
