19
Iteration:   182charge 0 multiplicity 1
 O         0.712604         0.257105         0.264210
 C        -0.601795         0.343521         0.768339
 C        -1.894834         0.085968        -0.014797
 C        -2.421204         1.076210         0.991078
 C        -1.222580         1.836301         0.893247
 C        -1.045790         2.495441         2.203712
 O        -1.930331         1.787598         3.113433
 C        -2.127185         0.504519         2.454719
 C        -0.872169        -0.437759         2.078913
 H         0.996316         1.264650         0.135116
 H        -1.944238         0.561151        -0.995306
 H        -2.381211        -0.946073        -0.125535
 H        -3.388487         1.620619         1.022067
 H        -1.144280         2.503376         0.007310
 H         0.048366         2.437981         2.513894
 H        -1.282665         3.488503         2.166232
 H        -2.970349         0.007552         2.890081
 H        -0.004918        -0.470319         2.772762
 H        -1.112377        -1.529349         2.084857
