19
Iteration:   151charge 0 multiplicity 1
 O         0.755327         0.139438         0.175300
 C        -0.547844         0.400116         0.727061
 C        -1.868234         0.003198        -0.012254
 C        -2.539960         1.065568         0.903967
 C        -1.203188         1.851169         0.992814
 C        -1.003886         2.482773         2.351306
 O        -1.893913         1.719698         3.195619
 C        -2.283700         0.525585         2.376555
 C        -0.832479        -0.203735         2.073934
 H         0.777260         0.586715        -0.609999
 H        -1.865131         0.387586        -1.003023
 H        -2.276175        -1.094777        -0.007015
 H        -3.429783         1.642212         0.625343
 H        -1.170968         2.565754         0.174611
 H        -0.001672         2.560678         2.799277
 H        -1.412861         3.547180         2.326165
 H        -3.058075         0.042225         2.920583
 H        -0.166003         0.338623         2.786109
 H        -0.719738        -1.319705         2.111337
