19
Iteration:  2989
 O         0.755027         0.361373         0.194095
 C        -0.580303         0.378149         0.722509
 C        -1.887061        -0.040526         0.009038
 C        -2.568600         0.910816         1.010843
 C        -1.307089         1.845311         0.835940
 C        -1.051729         2.509006         2.228376
 O        -1.872265         1.742735         3.092030
 C        -2.136957         0.524906         2.520507
 C        -0.781403        -0.188421         2.156868
 H         0.943726        -0.446212        -0.305710
 H        -1.914274         0.442956        -0.979529
 H        -2.241815        -1.079160         0.067013
 H        -3.564333         1.360411         0.852409
 H        -1.224009         2.423937        -0.044534
 H         0.001674         2.523149         2.416660
 H        -1.405445         3.617384         2.364285
 H        -2.919094        -0.047684         3.099284
 H        -0.076244         0.119687         2.975164
 H        -0.858810        -1.336881         2.181855
