19
Iteration:  2829charge 0 multiplicity 1
 O         0.748477         0.318024         0.120032
 C        -0.578335         0.398832         0.716787
 C        -1.934933        -0.057048         0.012760
 C        -2.583798         0.982248         1.033002
 C        -1.267759         1.778833         0.874552
 C        -1.062085         2.466158         2.214804
 O        -1.885030         1.764831         3.151443
 C        -2.172944         0.510311         2.426200
 C        -0.752299        -0.168003         2.154802
 H         1.533084         0.513353         0.754074
 H        -2.027619         0.353221        -0.957267
 H        -2.121246        -1.145390         0.092246
 H        -3.652510         1.375791         0.883247
 H        -1.254736         2.421348        -0.004754
 H        -0.000449         2.395053         2.608911
 H        -1.323956         3.448116         2.148874
 H        -3.005465        -0.079476         2.909762
 H         0.144410         0.161766         2.703530
 H        -0.778685        -1.196244         2.330584
