19
Iteration:  2604charge 0 multiplicity 1
 O         0.710580         0.191414         0.162083
 C        -0.571815         0.416205         0.672151
 C        -1.932658         0.019367         0.063182
 C        -2.491161         1.011219         1.006313
 C        -1.294004         1.893714         0.851603
 C        -1.215859         2.537246         2.177632
 O        -1.858848         1.688835         3.162034
 C        -2.060869         0.453428         2.466890
 C        -0.696951        -0.160422         2.102707
 H         1.280516         0.352090         0.924621
 H        -2.123580         0.353492        -1.025369
 H        -2.285500        -1.054627         0.288925
 H        -3.578931         1.226106         1.053067
 H        -1.182679         2.640700        -0.031413
 H        -0.110535         2.711696         2.439648
 H        -1.707549         3.450324         2.164639
 H        -2.756891        -0.176526         2.962235
 H        -0.140614         0.142479         2.937634
 H        -0.754056        -1.273525         2.021027
