19
Iteration:  1307charge 0 multiplicity 1
 O         0.612195         0.308751         0.062315
 C        -0.588973         0.454589         0.750096
 C        -1.900365        -0.001286         0.001664
 C        -2.413784         1.019456         0.972764
 C        -1.125945         1.829754         0.924815
 C        -1.064432         2.584575         2.262472
 O        -1.946354         1.655652         3.180901
 C        -2.098748         0.512504         2.411531
 C        -0.858553        -0.311441         2.145437
 H         1.283501         0.212573         0.860515
 H        -1.827405         0.214986        -1.086199
 H        -2.432235        -0.898310         0.114299
 H        -3.313729         1.635472         0.757605
 H        -1.203207         2.227083        -0.083535
 H        -0.118053         2.657822         2.721339
 H        -1.439257         3.711710         2.177172
 H        -2.867663        -0.105116         2.977010
 H         0.000247        -0.226314         2.901691
 H        -1.023652        -1.409154         2.150422
