19
Iteration:  4198charge 0 multiplicity 1
 O         0.750408         0.291001         0.197638
 C        -0.615423         0.420602         0.736731
 C        -1.882176         0.010452        -0.004880
 C        -2.552952         0.989219         1.024950
 C        -1.252853         1.860141         0.863244
 C        -0.937180         2.508775         2.256300
 O        -1.905636         1.714066         3.103226
 C        -2.185349         0.428981         2.395510
 C        -0.872667        -0.263872         2.177137
 H         0.943437         1.200954        -0.330040
 H        -1.944991         0.331991        -1.002104
 H        -2.171033        -1.049112         0.016099
 H        -3.482439         1.596599         1.191490
 H        -1.207622         2.551655        -0.067512
 H         0.083820         2.332387         2.612670
 H        -1.234438         3.518140         2.427288
 H        -2.949604        -0.158503         2.920538
 H        -0.181909         0.027978         2.989132
 H        -0.684093        -1.381783         2.053452
