19
Iteration:   904
 O         0.734876         0.164155         0.012529
 C        -0.582951         0.415030         0.722381
 C        -1.864171        -0.018597        -0.009460
 C        -2.549406         1.035995         0.968987
 C        -1.176942         1.837287         0.911553
 C        -1.055739         2.541981         2.428484
 O        -1.889900         1.729750         3.209973
 C        -2.243683         0.573114         2.409679
 C        -0.819800        -0.269572         2.106286
 H         1.355725         0.685192         0.622479
 H        -1.807889         0.471576        -0.970889
 H        -2.332722        -0.950893        -0.073275
 H        -3.472839         1.405228         0.576477
 H        -1.054881         2.400798         0.016403
 H        -0.081849         2.471890         2.707883
 H        -1.443000         3.622931         2.307979
 H        -3.028046        -0.016759         2.973695
 H        -0.101797         0.044513         2.864743
 H        -0.935228        -1.317456         1.969883
