19
Iteration:  3898
 O         0.673403         0.204225         0.103317
 C        -0.567395         0.432533         0.759644
 C        -1.854189         0.028523        -0.029954
 C        -2.506865         1.032965         0.967182
 C        -1.304059         1.903847         0.936542
 C        -1.017464         2.588353         2.301676
 O        -1.845711         1.659373         3.091611
 C        -2.126393         0.498643         2.398977
 C        -0.899189        -0.288027         2.219745
 H         1.303961         0.782942         0.497932
 H        -1.863088         0.234656        -1.105416
 H        -2.111294        -0.964027        -0.040867
 H        -3.540408         1.220931         0.721313
 H        -1.237706         2.375295         0.044720
 H        -0.040998         2.580282         2.768689
 H        -1.546299         3.569596         2.312504
 H        -2.765961        -0.101736         3.075538
 H         0.048155        -0.007871         2.802674
 H        -1.078716        -1.364310         2.166476
