19
Iteration:  1428charge 0 multiplicity 1
 O         0.663310         0.291380         0.173037
 C        -0.576030         0.438167         0.780982
 C        -1.876886         0.051393        -0.056803
 C        -2.535512         0.979824         0.952438
 C        -1.279402         1.921875         0.911231
 C        -1.129577         2.549876         2.226244
 O        -1.739751         1.719224         3.175917
 C        -2.175015         0.401612         2.380372
 C        -0.831920        -0.333766         2.144155
 H         1.271750         0.055729         0.843216
 H        -1.777170         0.328879        -1.171320
 H        -2.231928        -0.941983         0.059727
 H        -3.566732         1.439313         0.864085
 H        -1.174639         2.731782         0.162325
 H        -0.082140         2.427108         2.481950
 H        -1.361223         3.704604         2.317700
 H        -3.037171         0.052562         2.959782
 H         0.015608        -0.163203         2.946219
 H        -0.875822        -1.403985         1.899236
