19
Iteration:  1673charge 0 multiplicity 1
 O         0.751998         0.225236         0.146359
 C        -0.605790         0.366285         0.734437
 C        -1.926365         0.062176         0.059420
 C        -2.462678         1.038589         1.006336
 C        -1.171989         1.834942         0.928807
 C        -1.169052         2.538334         2.307222
 O        -1.918796         1.758225         3.148247
 C        -2.091302         0.462773         2.368187
 C        -0.764380        -0.240580         2.113522
 H         0.572236         0.018001        -0.784881
 H        -1.980061         0.432569        -0.890977
 H        -2.158025        -0.979817         0.019160
 H        -3.528808         1.389995         0.909012
 H        -1.126512         2.485949         0.034285
 H        -0.217124         2.771826         2.612970
 H        -1.654618         3.569130         2.313699
 H        -2.796386        -0.242585         2.926784
 H        -0.139793        -0.045940         2.961648
 H        -0.891688        -1.375454         1.987226
