19
Iteration:  3832charge 0 multiplicity 1
 O         0.678697         0.269222         0.183580
 C        -0.577614         0.394623         0.814189
 C        -1.807770        -0.019491         0.070749
 C        -2.538968         1.045547         0.923849
 C        -1.260707         1.875883         0.897759
 C        -1.044967         2.594742         2.257281
 O        -1.882426         1.699685         3.199913
 C        -2.143570         0.482417         2.331415
 C        -0.782605        -0.261461         2.137555
 H         0.451506        -0.398857        -0.637971
 H        -1.876614         0.270737        -1.036365
 H        -2.208748        -0.986342         0.017851
 H        -3.596896         1.412120         0.854185
 H        -1.152945         2.424475        -0.022946
 H         0.016002         2.558683         2.469144
 H        -1.474801         3.665854         2.358611
 H        -3.033266        -0.056639         2.726350
 H        -0.091468         0.124017         2.972411
 H        -0.788628        -1.352058         1.991165
