19
Iteration:  1238
 O         0.713499         0.192850         0.141570
 C        -0.568729         0.403179         0.729497
 C        -1.935705         0.117641        -0.016878
 C        -2.572740         0.980518         0.956394
 C        -1.228113         1.863048         0.940608
 C        -1.114005         2.539497         2.298314
 O        -1.862719         1.704174         3.120830
 C        -2.123447         0.515313         2.433076
 C        -0.768057        -0.239010         2.073671
 H         1.436372         0.059641         0.876622
 H        -1.918816         0.399521        -0.981502
 H        -2.213735        -0.957460         0.058124
 H        -3.528943         1.440464         0.822597
 H        -1.285531         2.518136         0.104941
 H        -0.079766         2.561053         2.593484
 H        -1.456535         3.617783         2.476426
 H        -2.764096        -0.113622         3.023631
 H         0.001108        -0.174353         2.819793
 H        -0.968987        -1.357568         2.036317
