19
Iteration:  2209charge 0 multiplicity 1
 O         0.762749         0.125262         0.152726
 C        -0.587634         0.379541         0.683551
 C        -1.946039         0.030209        -0.049862
 C        -2.509038         0.999758         1.061851
 C        -1.288075         1.838051         0.852532
 C        -1.176083         2.574414         2.224894
 O        -1.820311         1.686817         3.192351
 C        -2.094336         0.518535         2.471629
 C        -0.769558        -0.121464         2.107507
 H         1.376142         0.502102         0.730994
 H        -2.081535         0.391452        -1.002066
 H        -2.300911        -0.895672         0.141175
 H        -3.619273         1.250321         0.866336
 H        -1.285712         2.488057        -0.102728
 H        -0.194735         2.705012         2.528995
 H        -1.728451         3.587788         2.197562
 H        -2.746675        -0.246403         2.961536
 H        -0.060203         0.333936         2.714387
 H        -0.877901        -1.237672         2.227588
