19
Iteration:  3390
 O         0.642458         0.186930         0.076487
 C        -0.512086         0.404707         0.729558
 C        -1.752966        -0.055833        -0.018744
 C        -2.525905         0.866880         1.042726
 C        -1.355722         1.818230         0.887967
 C        -1.076567         2.521946         2.262622
 O        -1.911511         1.853500         3.119514
 C        -2.129931         0.526210         2.477894
 C        -0.807695        -0.157777         2.145497
 H         1.288156         0.805945         0.420919
 H        -1.801865         0.439174        -0.986593
 H        -2.130091        -1.037855        -0.188269
 H        -3.585448         1.203897         0.957031
 H        -1.320309         2.396987        -0.148230
 H        -0.091559         2.201197         2.593343
 H        -1.221226         3.685545         2.458168
 H        -2.882694         0.011484         3.164628
 H        -0.144609         0.308870         2.897434
 H        -0.773633        -1.249556         2.371390
