19
Iteration:  3519
 O         0.602708         0.417540         0.134446
 C        -0.586847         0.377224         0.839634
 C        -1.836606        -0.168799         0.123227
 C        -2.560305         0.930107         0.989718
 C        -1.195113         1.855059         0.777769
 C        -0.953387         2.476740         2.215105
 O        -1.955340         1.753750         3.146630
 C        -2.166028         0.566174         2.385236
 C        -0.749759        -0.124823         2.134105
 H         1.174633        -0.464761         0.054871
 H        -1.911778         0.165689        -0.987533
 H        -2.148958        -1.239197         0.393266
 H        -3.639182         1.145802         0.755007
 H        -1.025068         2.361755        -0.084001
 H         0.079367         2.520644         2.606393
 H        -1.320205         3.428218         2.354702
 H        -3.014083        -0.013184         2.862099
 H        -0.042591         0.193645         2.943142
 H        -0.833178        -1.259040         2.038899
