19
Iteration:  4952
 O         0.712144         0.161983         0.312152
 C        -0.616501         0.448750         0.732198
 C        -1.855300         0.028732         0.030333
 C        -2.532173         0.982345         1.027713
 C        -1.315787         1.826886         0.855256
 C        -1.182554         2.585199         2.131454
 O        -1.761081         1.718234         3.109711
 C        -2.104130         0.481542         2.472363
 C        -0.774455        -0.244794         2.066839
 H         1.182263         0.971456         0.082524
 H        -2.070398         0.274849        -0.942323
 H        -2.050469        -0.973982         0.126448
 H        -3.547823         1.355331         0.864127
 H        -1.396471         2.412611        -0.143942
 H        -0.168597         2.731974         2.534575
 H        -1.692975         3.644234         2.070903
 H        -2.947786         0.018861         3.103257
 H        -0.037601         0.020150         2.847800
 H        -0.805516        -1.342779         1.929890
