19
Iteration:  2312charge 0 multiplicity 1
 O         0.694822         0.178692         0.172224
 C        -0.576397         0.420033         0.717588
 C        -1.914643         0.076847        -0.017671
 C        -2.534073         0.853330         1.050652
 C        -1.333337         1.851708         0.854588
 C        -1.113492         2.599336         2.185565
 O        -1.872855         1.782020         3.128504
 C        -2.079863         0.479698         2.524090
 C        -0.741754        -0.205024         2.077765
 H         1.405552         0.379131         0.945023
 H        -1.937267         0.302432        -1.127158
 H        -2.167591        -1.003977        -0.086563
 H        -3.536444         1.191527         0.967717
 H        -1.394334         2.465703        -0.037039
 H        -0.024503         2.627549         2.334354
 H        -1.435027         3.638864         2.532310
 H        -2.815722        -0.032092         3.114395
 H         0.157384        -0.068973         2.833761
 H        -0.778999        -1.275173         2.008642
