19
Iteration:   793
 O         0.738061         0.348738         0.243861
 C        -0.596948         0.430182         0.732427
 C        -1.957098         0.002193        -0.065010
 C        -2.600812         1.015031         0.949718
 C        -1.142543         1.816358         0.884004
 C        -1.019531         2.436941         2.234325
 O        -1.817151         1.700722         3.195199
 C        -2.201398         0.522755         2.419660
 C        -0.800348        -0.223623         2.123335
 H         0.949904        -0.520180         0.074841
 H        -1.862954         0.528484        -0.972273
 H        -2.490785        -0.971116        -0.128363
 H        -3.638527         1.484039         0.728963
 H        -1.017635         2.510613         0.019879
 H        -0.028989         2.518376         2.651238
 H        -1.566803         3.508804         2.208728
 H        -2.916153         0.018632         3.137792
 H        -0.153239        -0.087986         2.977162
 H        -1.073025        -1.266694         1.951518
