19
Iteration:   184
 O         0.727629         0.256892         0.262019
 C        -0.598629         0.343255         0.762323
 C        -1.892543         0.083338        -0.023252
 C        -2.447169         1.070400         0.993238
 C        -1.231302         1.830182         0.889144
 C        -1.031605         2.504563         2.225566
 O        -1.920813         1.790514         3.118842
 C        -2.145144         0.514163         2.457036
 C        -0.874808        -0.441107         2.076111
 H         1.009969         1.227532         0.160243
 H        -1.887644         0.558665        -0.966727
 H        -2.380601        -0.974640        -0.123454
 H        -3.376337         1.610635         0.965271
 H        -1.178133         2.463623         0.017409
 H         0.040045         2.422820         2.483324
 H        -1.321363         3.560076         2.118228
 H        -2.938044        -0.004391         2.938222
 H        -0.009656        -0.436100         2.762967
 H        -1.106915        -1.540098         2.005879
