19
Iteration:    11charge 0 multiplicity 1
 O         0.733842         0.221895         0.198648
 C        -0.607197         0.299971         0.646014
 C        -1.869064         0.079186        -0.098676
 C        -2.541508         1.025520         1.035088
 C        -1.213070         1.810031         0.904255
 C        -0.969073         2.532509         2.313468
 O        -1.897668         1.681074         3.216634
 C        -2.185387         0.524931         2.437667
 C        -0.895087        -0.203786         2.031331
 H         1.312783         0.211804         1.079368
 H        -1.813319         0.693670        -0.951686
 H        -2.371237        -0.864042        -0.311746
 H        -3.406804         1.632636         0.730341
 H        -1.177455         2.554795         0.096984
 H        -0.004009         2.528308         2.768184
 H        -1.367935         3.619631         2.262738
 H        -3.025747         0.010812         2.868300
 H        -0.109018         0.112996         2.678642
 H        -0.946706        -1.268866         1.916763
