19
Iteration:  2164
 O         0.678010         0.358321         0.006727
 C        -0.517805         0.370205         0.786857
 C        -1.848153        -0.072069         0.082932
 C        -2.506672         0.942636         0.991936
 C        -1.271368         1.805504         0.878069
 C        -1.097516         2.596671         2.185317
 O        -1.843815         1.742576         3.140983
 C        -2.164219         0.536177         2.491267
 C        -0.858673        -0.301532         2.179653
 H         1.351541         0.118022         0.563198
 H        -1.884134         0.459174        -0.847554
 H        -2.166952        -1.053599         0.061408
 H        -3.411092         1.533935         0.828362
 H        -1.145193         2.365218        -0.047973
 H        -0.094126         2.620769         2.482993
 H        -1.544401         3.654067         2.297826
 H        -2.925042         0.149615         3.196618
 H        -0.146675        -0.097085         2.938536
 H        -1.102372        -1.386919         2.016568
