19
Iteration:  1691
 O         0.672721         0.206854         0.176287
 C        -0.578988         0.392254         0.782443
 C        -1.896785        -0.049679        -0.018144
 C        -2.507916         1.024947         0.938036
 C        -1.207723         1.905679         0.941975
 C        -1.093617         2.628337         2.280643
 O        -1.904369         1.656610         3.153366
 C        -2.116824         0.518652         2.446900
 C        -0.757958        -0.265498         2.110809
 H         0.674348         0.772987        -0.634124
 H        -1.983642         0.204405        -1.244616
 H        -2.331770        -1.094941         0.026059
 H        -3.475835         1.441729         0.942902
 H        -0.979477         2.514681         0.056622
 H         0.035870         2.740541         2.733880
 H        -1.569436         3.581332         2.273739
 H        -2.909565        -0.017410         2.908169
 H         0.122404        -0.000941         2.756928
 H        -0.852550        -1.312277         2.133293
