19
Iteration:  3991charge 0 multiplicity 1
 O         0.761270         0.176409         0.205395
 C        -0.584371         0.451829         0.665804
 C        -1.816522        -0.028678        -0.068150
 C        -2.442393         0.945398         0.978203
 C        -1.271885         1.952466         0.891142
 C        -1.151010         2.582655         2.349808
 O        -1.770592         1.683431         3.234760
 C        -2.194684         0.500621         2.435393
 C        -0.895312        -0.212478         2.104132
 H         0.596022         0.047517        -0.799666
 H        -2.021657         0.345666        -1.059874
 H        -2.163767        -1.102168        -0.228688
 H        -3.429386         1.435063         0.746121
 H        -1.129886         2.690375        -0.072638
 H        -0.126698         2.711612         2.706819
 H        -1.718738         3.565039         2.388184
 H        -3.088912         0.062889         2.904455
 H        -0.321966         0.007657         2.964651
 H        -1.053831        -1.318358         2.154807
