19
Iteration:  3238charge 0 multiplicity 1
 O         0.652007         0.305398         0.013643
 C        -0.553302         0.374572         0.757357
 C        -1.802358        -0.143693         0.000255
 C        -2.528526         0.934312         1.001539
 C        -1.311891         1.800856         0.928540
 C        -1.052983         2.492810         2.264571
 O        -1.925622         1.802323         3.150406
 C        -2.139211         0.610845         2.436981
 C        -0.790870        -0.157663         2.216180
 H         1.355797         0.468630         0.618162
 H        -1.707869         0.298944        -0.999806
 H        -2.154028        -1.185198        -0.062117
 H        -3.577979         1.171602         0.703475
 H        -1.095552         2.398321        -0.131229
 H         0.043971         2.393662         2.618602
 H        -1.297342         3.531386         2.371007
 H        -2.866140        -0.009685         3.042240
 H        -0.046043        -0.045557         2.957971
 H        -1.027988        -1.177728         2.000424
