19
Iteration:  4714
 O         0.701385         0.093092         0.094755
 C        -0.590432         0.387999         0.726976
 C        -1.879534         0.022947        -0.049071
 C        -2.462443         1.110619         0.978094
 C        -1.090129         1.899981         0.949681
 C        -1.252372         2.670370         2.331672
 O        -1.883030         1.621524         3.219840
 C        -2.091565         0.540861         2.448971
 C        -0.801399        -0.308359         2.101757
 H         0.910371         0.957010        -0.371884
 H        -1.867412         0.346921        -1.146886
 H        -2.337600        -1.090091         0.071858
 H        -3.472250         1.516548         0.867298
 H        -1.120171         2.458531        -0.020593
 H        -0.309765         3.019674         2.779820
 H        -1.987247         3.470089         2.163445
 H        -2.892092        -0.133528         2.945923
 H        -0.038909         0.025428         2.806548
 H        -0.852226        -1.400252         2.031761
