19
Iteration:  4379
 O         0.720746         0.270421         0.222357
 C        -0.603913         0.475691         0.712778
 C        -1.869876        -0.015399        -0.046888
 C        -2.546136         0.938424         0.961624
 C        -1.291483         1.936378         0.878214
 C        -1.001858         2.524585         2.358928
 O        -1.862414         1.744485         3.167747
 C        -2.133984         0.432688         2.396100
 C        -0.840367        -0.246747         2.119114
 H         0.782345         0.402097        -0.741259
 H        -1.760256         0.315502        -1.085966
 H        -2.111445        -1.029897        -0.062494
 H        -3.653281         1.155524         0.898456
 H        -1.173726         2.569072         0.011828
 H         0.080306         2.390759         2.488378
 H        -1.327698         3.522115         2.637160
 H        -2.779777        -0.191161         3.097275
 H        -0.138493        -0.106752         2.909885
 H        -1.092976        -1.301345         2.064918
