19
Iteration:   637
 O         0.667447         0.298602         0.195427
 C        -0.629905         0.389483         0.691616
 C        -1.968006         0.014304        -0.095864
 C        -2.514945         1.045800         0.990840
 C        -1.111105         1.807483         0.916960
 C        -1.037240         2.562136         2.255844
 O        -1.794869         1.660251         3.169316
 C        -2.182804         0.516208         2.397875
 C        -0.862639        -0.288484         2.156434
 H         1.380244         0.245605         0.992869
 H        -1.997423         0.425274        -1.106623
 H        -2.283810        -1.044780        -0.225154
 H        -3.406829         1.595499         0.850469
 H        -1.123518         2.427556         0.025067
 H        -0.195355         2.716242         2.830365
 H        -1.551962         3.585401         2.246788
 H        -2.981947         0.087407         2.895019
 H        -0.115137        -0.073419         2.926510
 H        -0.898659        -1.364739         1.973844
