19
Iteration:  2578charge 0 multiplicity 1
 O         0.645800         0.256453         0.008993
 C        -0.584112         0.404463         0.708300
 C        -1.825755        -0.114903         0.013469
 C        -2.549081         0.934735         0.980885
 C        -1.182167         1.836111         0.924273
 C        -1.114464         2.582626         2.293822
 O        -1.890939         1.793697         3.190822
 C        -2.191247         0.511767         2.459035
 C        -0.726971        -0.219346         2.131455
 H         1.320349         0.798118         0.516286
 H        -1.962008         0.281299        -0.955353
 H        -1.955560        -1.231811         0.165402
 H        -3.597260         1.279223         0.785952
 H        -0.973611         2.436491         0.092158
 H        -0.096788         2.682506         2.584822
 H        -1.596637         3.646506         2.212469
 H        -2.906989        -0.100229         3.037790
 H        -0.289107         0.057603         3.124828
 H        -0.831242        -1.370455         2.108957
