19
Iteration:  3995charge 0 multiplicity 1
 O         0.744021         0.186858         0.231899
 C        -0.581638         0.443171         0.646663
 C        -1.844898        -0.002600        -0.043749
 C        -2.439991         0.933545         0.954741
 C        -1.237199         1.964536         0.885449
 C        -1.165256         2.582843         2.343832
 O        -1.765098         1.680620         3.208011
 C        -2.201110         0.480659         2.413946
 C        -0.871861        -0.245670         2.140489
 H         0.539281         0.119930        -0.740030
 H        -2.135589         0.476248        -1.055153
 H        -2.243362        -1.093086        -0.151286
 H        -3.356982         1.390698         0.698490
 H        -1.157361         2.614204         0.037030
 H        -0.078416         2.905334         2.666476
 H        -1.734950         3.464757         2.424464
 H        -3.117383         0.200969         2.949328
 H        -0.188291        -0.014467         3.022366
 H        -0.968657        -1.319571         2.034646
