19
Iteration:  1344charge 0 multiplicity 1
 O         0.666488         0.111662         0.029932
 C        -0.525707         0.458415         0.655636
 C        -1.833523         0.060432        -0.011442
 C        -2.500107         0.997653         0.917101
 C        -1.320500         1.863930         0.901481
 C        -1.012724         2.485328         2.339233
 O        -1.988949         1.693633         3.230476
 C        -2.142764         0.501388         2.490075
 C        -0.803875        -0.131813         2.173402
 H         1.573907         0.267362         0.582987
 H        -1.787550         0.565647        -1.061982
 H        -2.115338        -1.020117        -0.062982
 H        -3.456540         1.475910         0.700928
 H        -1.339872         2.633356         0.058301
 H         0.024728         2.250527         2.793981
 H        -1.197994         3.506948         2.375888
 H        -2.967308        -0.017686         2.888066
 H        -0.162690         0.303766         2.924396
 H        -0.645106        -1.173192         2.057085
