19
Iteration:  4668
 O         0.740839         0.320483         0.325150
 C        -0.629970         0.458513         0.666770
 C        -1.845147         0.055089        -0.105978
 C        -2.531517         0.924154         0.961633
 C        -1.360584         1.889857         0.892432
 C        -1.000084         2.510443         2.256504
 O        -1.739819         1.656881         3.244819
 C        -2.168537         0.503529         2.449591
 C        -0.922307        -0.230689         2.074621
 H         0.791247         0.014968        -0.552004
 H        -1.995274         0.435637        -1.112459
 H        -1.964084        -1.086704        -0.040499
 H        -3.535332         1.286226         0.737333
 H        -1.207952         2.542508        -0.035588
 H         0.099058         2.425778         2.387260
 H        -1.329147         3.508172         2.355693
 H        -2.879780        -0.178681         2.973874
 H        -0.122592        -0.161696         2.849298
 H        -1.264029        -1.242210         1.996291
