19
Iteration:  2134
 O         0.672100         0.305988         0.145674
 C        -0.611695         0.384101         0.683533
 C        -1.962274        -0.053688         0.011162
 C        -2.502312         0.924504         1.000349
 C        -1.226735         1.779008         0.861870
 C        -1.040481         2.534471         2.257596
 O        -1.941562         1.757399         3.140804
 C        -2.070060         0.504613         2.477282
 C        -0.763664        -0.126392         2.086949
 H         1.300950        -0.148890         0.790674
 H        -2.148710         0.292924        -0.962098
 H        -2.300284        -1.106032         0.187249
 H        -3.496737         1.500729         0.953782
 H        -1.079200         2.533228        -0.001205
 H         0.011254         2.474262         2.624116
 H        -1.341950         3.670188         2.188603
 H        -2.721700        -0.132567         3.109136
 H         0.050240         0.256524         2.716125
 H        -0.735804        -1.204292         2.270132
