19
Iteration:  2509charge 0 multiplicity 1
 O         0.706379         0.202788         0.146437
 C        -0.570469         0.424516         0.637836
 C        -1.902309        -0.086710        -0.011266
 C        -2.580444         0.971192         1.030801
 C        -1.307625         1.877934         0.831467
 C        -1.148503         2.562982         2.255090
 O        -1.839488         1.718039         3.214396
 C        -2.076206         0.495024         2.435215
 C        -0.775694        -0.130425         2.122107
 H         1.322820         0.078637         1.029484
 H        -1.989836         0.332978        -1.042486
 H        -2.030086        -1.114625         0.077930
 H        -3.548913         1.394985         1.017897
 H        -1.155709         2.569687        -0.039519
 H        -0.130937         2.613711         2.547718
 H        -1.605852         3.632215         2.206027
 H        -2.787189        -0.121766         3.077849
 H         0.131450         0.168938         2.802233
 H        -0.639196        -1.156432         1.942500
