19
Iteration:  3569charge 0 multiplicity 1
 O         0.734729         0.310159         0.228337
 C        -0.612768         0.374497         0.732435
 C        -1.933497        -0.073709         0.030701
 C        -2.574941         0.882305         0.989312
 C        -1.210487         1.765406         0.886867
 C        -1.174831         2.631032         2.204084
 O        -1.872608         1.794834         3.161433
 C        -2.038353         0.512427         2.473709
 C        -0.759289        -0.179965         2.036898
 H         1.003011        -0.623149         0.219756
 H        -2.056349         0.314514        -0.986861
 H        -2.247918        -1.080627         0.022549
 H        -3.513121         1.449330         0.754833
 H        -0.964370         2.451197        -0.036212
 H        -0.173824         2.770216         2.658343
 H        -1.554065         3.749867         2.017030
 H        -2.669881         0.002603         3.187668
 H         0.057682         0.087311         2.711981
 H        -0.919112        -1.233016         1.982582
