19
Iteration:   604
 O         0.647908         0.082020         0.062021
 C        -0.511820         0.478673         0.714580
 C        -1.812685         0.018896        -0.071103
 C        -2.541146         1.041368         0.976536
 C        -1.212042         1.942530         0.891022
 C        -1.043893         2.593009         2.330287
 O        -1.920940         1.691375         3.261232
 C        -2.205073         0.497752         2.438969
 C        -0.832777        -0.259731         2.137171
 H         1.434535         0.302363         0.610942
 H        -1.827230         0.433593        -1.102242
 H        -1.931271        -1.066514        -0.003286
 H        -3.449010         1.487323         0.726711
 H        -1.354479         2.569462         0.020937
 H        -0.087028         2.458847         2.698945
 H        -1.404596         3.633383         2.276658
 H        -3.061434         0.046804         2.811534
 H        -0.133348        -0.179725         2.982235
 H        -0.803380        -1.306153         1.808908
