19
Iteration:  4628charge 0 multiplicity 1
 O         0.754844         0.395185         0.200181
 C        -0.568050         0.378224         0.717879
 C        -1.971517         0.020559        -0.006106
 C        -2.466522         1.072451         1.012984
 C        -1.180250         1.810336         0.921506
 C        -1.013545         2.347307         2.271066
 O        -1.947337         1.702530         3.147592
 C        -2.138201         0.467015         2.380347
 C        -0.837132        -0.184409         2.156605
 H         0.741041         0.622661        -0.817784
 H        -2.154081         0.433736        -1.039686
 H        -2.485953        -0.986257         0.053255
 H        -3.523261         1.314409         0.868630
 H        -1.044429         2.454470         0.060730
 H         0.029317         2.095489         2.542473
 H        -1.256399         3.537058         2.427156
 H        -2.945515        -0.105266         2.931864
 H        -0.045179        -0.051466         2.890105
 H        -1.023165        -1.304975         2.086679
