19
Iteration:  4537charge 0 multiplicity 1
 O         0.650783         0.292597         0.098863
 C        -0.599689         0.442974         0.718737
 C        -1.846691         0.044407        -0.071419
 C        -2.531882         1.041809         0.964876
 C        -1.211958         1.828522         0.883749
 C        -1.054786         2.583832         2.313527
 O        -1.840265         1.609142         3.229836
 C        -2.169038         0.496595         2.460552
 C        -0.818850        -0.262791         2.113999
 H         1.329719        -0.074683         0.822869
 H        -1.953339         0.452285        -1.091768
 H        -2.186523        -1.098587        -0.139258
 H        -3.462623         1.531261         0.794207
 H        -1.147755         2.538612         0.030189
 H        -0.042319         2.573895         2.803364
 H        -1.673340         3.667626         2.239599
 H        -2.953714        -0.055017         2.926938
 H         0.022866        -0.261906         2.861294
 H        -1.001081        -1.297079         1.895982
