19
Iteration:  1358charge 0 multiplicity 1
 O         0.620141         0.091496         0.096117
 C        -0.584336         0.477757         0.721037
 C        -1.847869         0.040015        -0.098529
 C        -2.521392         0.981208         0.991571
 C        -1.175466         1.971671         0.925102
 C        -1.106378         2.426787         2.343947
 O        -1.940613         1.707976         3.151492
 C        -2.149840         0.488266         2.432032
 C        -0.726234        -0.097668         2.138142
 H         1.257290         0.416466         0.634316
 H        -1.930096         0.447931        -1.057247
 H        -2.149362        -1.107482        -0.064523
 H        -3.549519         1.261198         0.915675
 H        -1.024328         2.721297         0.145602
 H         0.016743         2.401810         2.620275
 H        -1.453520         3.430738         2.433529
 H        -2.728329        -0.235165         3.043623
 H         0.066369         0.126931         2.818362
 H        -0.940465        -1.206800         2.115421
