19
Iteration:   447charge 0 multiplicity 1
 O         0.628115         0.146834        -0.026290
 C        -0.479364         0.429029         0.820896
 C        -1.767788         0.038601        -0.001047
 C        -2.519451         1.005042         0.966663
 C        -1.175842         1.869048         0.954278
 C        -1.076492         2.500345         2.309487
 O        -1.910714         1.702190         3.192585
 C        -2.282580         0.545613         2.411644
 C        -0.867451        -0.196363         2.157426
 H         1.423453         0.322644         0.498084
 H        -1.581461         0.526492        -0.975365
 H        -2.058017        -1.020024        -0.122183
 H        -3.462913         1.522562         0.640043
 H        -1.065742         2.453311         0.033762
 H         0.002960         2.483138         2.590235
 H        -1.414329         3.606049         2.296621
 H        -3.127566        -0.063729         2.896252
 H        -0.187012         0.091070         2.986329
 H        -0.881164        -1.298621         2.073367
