19
Iteration:  2759charge 0 multiplicity 1
 O         0.745098         0.384122         0.085411
 C        -0.563167         0.361058         0.721261
 C        -1.886100        -0.078030         0.077024
 C        -2.536202         0.954510         1.026914
 C        -1.142569         1.818598         0.869821
 C        -1.210644         2.576288         2.198570
 O        -1.818928         1.696029         3.177228
 C        -2.212355         0.563952         2.410098
 C        -0.787123        -0.231190         2.182581
 H         0.818261        -0.663837        -0.140986
 H        -2.055000         0.288783        -0.991191
 H        -2.295595        -1.018227         0.355870
 H        -3.407160         1.513985         1.021784
 H        -0.860075         2.357619        -0.088405
 H        -0.279104         3.006924         2.676803
 H        -1.872697         3.399995         1.944996
 H        -2.985704         0.020715         3.007162
 H        -0.010289         0.065564         2.899038
 H        -0.702173        -1.322818         2.288568
