19
Iteration:  3176charge 0 multiplicity 1
 O         0.641469         0.119495         0.073865
 C        -0.593120         0.389870         0.780639
 C        -1.775999        -0.049360        -0.023287
 C        -2.517463         1.041032         0.919943
 C        -1.283037         1.906250         0.927284
 C        -1.228881         2.624626         2.255459
 O        -1.811305         1.725435         3.198397
 C        -2.137239         0.465987         2.453241
 C        -0.743691        -0.174558         2.110494
 H         1.323733         0.365392         0.740907
 H        -1.893664         0.269027        -1.056030
 H        -2.098882        -1.111160         0.259977
 H        -3.601684         1.227814         0.698091
 H        -1.007644         2.428965         0.120201
 H        -0.195863         2.890359         2.504029
 H        -1.785686         3.627191         2.248123
 H        -2.939792        -0.102438         2.999143
 H        -0.106189         0.257292         2.968129
 H        -0.519756        -1.313870         2.083010
