19
Iteration:   332charge 0 multiplicity 1
 O         0.814280         0.265435         0.222843
 C        -0.606749         0.364816         0.676007
 C        -1.976567        -0.010010        -0.099218
 C        -2.530840         0.981414         0.959988
 C        -1.192623         1.814411         0.917948
 C        -1.072203         2.511141         2.329878
 O        -1.803002         1.727848         3.194511
 C        -2.164234         0.581061         2.417776
 C        -0.906601        -0.240371         2.039470
 H         1.364613        -0.059642         1.046772
 H        -2.025762         0.688197        -0.975045
 H        -2.342445        -1.014978        -0.190690
 H        -3.505169         1.400492         0.630944
 H        -1.082380         2.501751         0.039545
 H        -0.067395         2.618907         2.661350
 H        -1.587680         3.591571         2.461058
 H        -2.986461         0.103638         2.976406
 H        -0.140607         0.010831         2.788025
 H        -1.296685        -1.257338         1.991927
