19
Iteration:   140charge 0 multiplicity 1
 O         0.750104         0.087028         0.165437
 C        -0.534365         0.385665         0.650764
 C        -1.776004         0.046626        -0.058806
 C        -2.489138         1.078746         0.967130
 C        -1.284085         1.927547         0.922080
 C        -1.093873         2.451409         2.343106
 O        -1.910437         1.697167         3.300886
 C        -2.251877         0.573054         2.373589
 C        -0.842767        -0.130792         2.113041
 H         0.747399         0.070772        -0.821453
 H        -1.853752         0.261693        -1.092910
 H        -2.028166        -1.087671         0.129362
 H        -3.482343         1.413249         0.639666
 H        -1.085286         2.633466         0.123929
 H        -0.034543         2.185548         2.485653
 H        -1.294394         3.571755         2.534038
 H        -3.070047         0.021347         2.759362
 H        -0.065888         0.159586         2.889129
 H        -0.896460        -1.257257         2.183346
