19
Iteration:  2968
 O         0.663171         0.502873         0.162084
 C        -0.550144         0.386986         0.753987
 C        -1.937007        -0.079381        -0.010211
 C        -2.530805         0.937647         1.056464
 C        -1.213368         1.754891         0.904063
 C        -0.988875         2.495583         2.162464
 O        -1.941347         1.817100         3.099356
 C        -2.119582         0.490285         2.437062
 C        -0.798989        -0.294806         2.194388
 H         1.063279        -0.311274        -0.002439
 H        -1.985107         0.355241        -0.980922
 H        -2.337054        -1.065747         0.120854
 H        -3.519924         1.448422         0.977528
 H        -0.990443         2.242966         0.026037
 H        -0.038617         2.391764         2.600834
 H        -1.199062         3.601822         1.884033
 H        -2.932930        -0.087338         3.018037
 H        -0.017572        -0.068743         3.003123
 H        -0.824404        -1.400418         2.203170
