19
Iteration:  1455
 O         0.728653         0.253492         0.212306
 C        -0.577610         0.409162         0.640397
 C        -1.916032         0.029739        -0.033261
 C        -2.558801         0.950962         1.039878
 C        -1.205674         1.852343         0.926903
 C        -1.043301         2.462935         2.256407
 O        -1.865307         1.711982         3.201733
 C        -2.193819         0.451591         2.404914
 C        -0.807183        -0.111926         2.004284
 H         1.214625         0.145848         0.980628
 H        -2.004194         0.481620        -0.970018
 H        -2.360870        -1.010639         0.059149
 H        -3.432333         1.493765         0.765317
 H        -1.269286         2.665473         0.195392
 H        -0.033775         2.464476         2.741485
 H        -1.434206         3.447317         2.133299
 H        -2.858832        -0.145621         3.045927
 H        -0.008384         0.194363         2.592480
 H        -0.890933        -1.216341         1.966984
