19
Iteration:   626charge 0 multiplicity 1
 O         0.664998         0.226652         0.160125
 C        -0.557417         0.364948         0.790080
 C        -1.931373         0.081502         0.006109
 C        -2.513948         1.065980         0.987263
 C        -1.194179         1.861088         0.923126
 C        -1.089807         2.512188         2.329190
 O        -1.820888         1.658439         3.066836
 C        -2.130650         0.522502         2.376741
 C        -0.861892        -0.266405         2.076446
 H         1.366391         0.326844         0.853973
 H        -1.972386         0.549861        -0.982852
 H        -2.257745        -0.971921         0.065594
 H        -3.443162         1.543182         0.862863
 H        -0.999712         2.431442         0.015259
 H        -0.085405         2.642935         2.565843
 H        -1.632575         3.492973         2.279488
 H        -2.851456         0.002735         2.910880
 H        -0.087363        -0.039140         2.819480
 H        -1.085349        -1.338521         2.117408
