19
Iteration:   740
 O         0.640055         0.255617         0.086666
 C        -0.562973         0.413727         0.769443
 C        -1.789627         0.039606         0.057330
 C        -2.512817         1.048065         1.005975
 C        -1.185307         1.819275         0.989164
 C        -1.053125         2.519149         2.301754
 O        -1.942489         1.735154         3.114118
 C        -2.185677         0.538784         2.379546
 C        -0.799194        -0.275669         2.079194
 H         0.767046        -0.604303        -0.145046
 H        -1.669315         0.421461        -1.009157
 H        -2.086622        -1.037848         0.109323
 H        -3.489388         1.603995         0.820585
 H        -1.009573         2.384295         0.046883
 H        -0.020248         2.434456         2.716726
 H        -1.408733         3.496871         2.423575
 H        -3.067550         0.035194         2.936401
 H        -0.028740         0.050030         2.802865
 H        -0.980063        -1.358126         2.107711
