19
Iteration:  2669charge 0 multiplicity 1
 O         0.645247         0.443675         0.081689
 C        -0.558421         0.390034         0.744338
 C        -1.937075        -0.124635         0.111047
 C        -2.504409         0.977467         1.050552
 C        -1.189946         1.773435         0.947812
 C        -1.059859         2.560035         2.196492
 O        -1.921100         1.748451         3.090641
 C        -2.141889         0.491784         2.401698
 C        -0.755674        -0.218365         2.114876
 H         1.283088        -0.317573         0.460252
 H        -1.915722         0.143465        -0.987600
 H        -2.376785        -1.066963         0.522347
 H        -3.437996         1.406190         0.727653
 H        -1.028423         2.366128        -0.030051
 H        -0.028298         2.675113         2.576511
 H        -1.581091         3.516764         2.140334
 H        -2.776976        -0.080113         3.003582
 H        -0.045418        -0.002205         2.891333
 H        -0.809743        -1.394053         2.142962
