19
Iteration:  4992
 O         0.683782         0.319095         0.158859
 C        -0.543679         0.367235         0.759032
 C        -1.832382        -0.035227         0.039568
 C        -2.522502         0.942666         0.989745
 C        -1.275592         1.810041         0.878702
 C        -1.210048         2.664118         2.156291
 O        -1.755591         1.755536         3.167925
 C        -2.146449         0.543336         2.472311
 C        -0.844829        -0.294989         2.140903
 H         1.151873        -0.505596         0.438272
 H        -2.003072         0.222700        -1.074626
 H        -1.961272        -1.240656         0.106703
 H        -3.442866         1.527649         0.737511
 H        -1.036908         2.313884        -0.070992
 H        -0.200002         3.064603         2.290774
 H        -1.895672         3.470029         2.151110
 H        -2.877178        -0.010384         3.109087
 H         0.082782        -0.137647         2.766209
 H        -1.054601        -1.349515         2.093813
