19
Iteration:  3525charge 0 multiplicity 1
 O         0.592978         0.424825         0.109011
 C        -0.576696         0.423275         0.828791
 C        -1.839065        -0.152892         0.135115
 C        -2.573214         0.935301         0.942547
 C        -1.210833         1.847109         0.828980
 C        -0.966321         2.499729         2.235363
 O        -1.913597         1.769473         3.087971
 C        -2.184068         0.517075         2.400858
 C        -0.764875        -0.163789         2.202541
 H         1.030019        -0.497140         0.106642
 H        -1.668000         0.014702        -0.912276
 H        -2.126585        -1.177141         0.215234
 H        -3.644088         1.098386         0.756751
 H        -1.005228         2.312459        -0.238165
 H         0.117906         2.369266         2.513418
 H        -1.290113         3.595993         2.493811
 H        -2.892867        -0.080937         2.944172
 H        -0.065805         0.126313         2.973451
 H        -0.845756        -1.217522         2.115030
