19
Iteration:   510
 O         0.681104         0.222667         0.188604
 C        -0.594836         0.453233         0.716137
 C        -1.828172         0.075810        -0.113891
 C        -2.477450         0.937857         0.969637
 C        -1.283932         1.897299         0.880229
 C        -1.067055         2.470861         2.212616
 O        -1.761535         1.693696         3.184160
 C        -2.186302         0.517280         2.461657
 C        -0.955062        -0.218393         2.160577
 H         1.403544         0.084649         0.856903
 H        -1.805841         0.669305        -0.967155
 H        -2.031149        -1.028281        -0.225512
 H        -3.534586         1.286011         0.896461
 H        -1.193065         2.651072         0.085357
 H        -0.029748         2.433923         2.435520
 H        -1.423510         3.531689         2.388065
 H        -2.884154        -0.006843         3.117552
 H        -0.183152        -0.082320         2.920702
 H        -1.211905        -1.301596         2.092628
