19
Iteration:  1113charge 0 multiplicity 1
 O         0.653514         0.284146         0.127605
 C        -0.526702         0.487999         0.810158
 C        -1.833923         0.033224         0.023137
 C        -2.611966         1.049089         0.966425
 C        -1.182934         1.818953         0.883398
 C        -1.130456         2.547047         2.230759
 O        -1.756213         1.662561         3.219310
 C        -2.183168         0.482531         2.360785
 C        -0.873852        -0.297294         2.067444
 H         1.363749        -0.196306         0.723476
 H        -1.578205         0.422149        -1.041864
 H        -2.099152        -0.986506         0.046616
 H        -3.602690         1.575425         0.980517
 H        -1.074405         2.563236         0.040169
 H        -0.103510         2.628444         2.680021
 H        -1.619686         3.484387         2.100841
 H        -2.903388        -0.054700         3.039336
 H        -0.286517        -0.295288         2.980007
 H        -1.229790        -1.237147         1.804600
