19
Iteration:  3112charge 0 multiplicity 1
 O         0.679502         0.424289         0.226704
 C        -0.609873         0.391096         0.676476
 C        -1.916606        -0.083351         0.029048
 C        -2.536946         0.934282         0.985921
 C        -1.289261         1.803128         0.815650
 C        -0.996653         2.473899         2.229014
 O        -1.859912         1.714004         3.100046
 C        -2.099553         0.513819         2.430867
 C        -0.831767        -0.113757         2.165731
 H         1.134551        -0.314715         0.486908
 H        -2.045929         0.198190        -0.999768
 H        -2.106770        -1.142255         0.216145
 H        -3.579109         1.296074         1.027018
 H        -1.002967         2.403110         0.037282
 H        -0.004563         2.406320         2.575667
 H        -1.375669         3.581898         2.210897
 H        -2.777250        -0.051165         3.102551
 H        -0.025999         0.117548         2.927585
 H        -0.859248        -1.220226         2.201515
