19
Iteration:  3456charge 0 multiplicity 1
 O         0.645456         0.221941         0.148768
 C        -0.563251         0.464969         0.793991
 C        -1.807510        -0.057555        -0.059231
 C        -2.521746         0.914399         0.975940
 C        -1.290276         1.836472         0.842152
 C        -1.214037         2.612255         2.212847
 O        -1.784928         1.762642         3.151963
 C        -2.113103         0.480973         2.534266
 C        -0.814738        -0.173201         2.130094
 H         1.277420        -0.474733         0.632524
 H        -1.758758         0.174391        -1.101661
 H        -2.019367        -1.112716         0.101985
 H        -3.436073         1.491264         0.912907
 H        -1.162846         2.435612        -0.142746
 H        -0.236457         2.951248         2.569779
 H        -1.896737         3.589639         2.044758
 H        -2.720205        -0.048982         3.306920
 H        -0.026926         0.077239         2.854057
 H        -0.788499        -1.265287         1.860228
