19
Iteration:  1360
 O         0.611538         0.094483         0.104070
 C        -0.593003         0.470858         0.717519
 C        -1.847938         0.034420        -0.093882
 C        -2.533430         0.975630         1.008780
 C        -1.161527         1.970429         0.941640
 C        -1.106278         2.451216         2.342155
 O        -1.938852         1.697810         3.146505
 C        -2.153068         0.498164         2.410615
 C        -0.716522        -0.116389         2.120120
 H         1.337373         0.459404         0.685413
 H        -1.871535         0.464342        -1.047422
 H        -2.129847        -1.062751        -0.020975
 H        -3.588276         1.318872         0.954858
 H        -1.004463         2.625946         0.101051
 H        -0.040069         2.367147         2.624427
 H        -1.474193         3.550774         2.400887
 H        -2.729576        -0.255959         3.040301
 H         0.131471         0.174050         2.808558
 H        -0.954507        -1.226763         2.086564
