19
Iteration:  2178
 O         0.575806         0.277594         0.067127
 C        -0.606725         0.448139         0.814524
 C        -1.769121        -0.039743         0.010032
 C        -2.522431         0.959664         1.011195
 C        -1.257869         1.885751         0.890556
 C        -1.109651         2.580990         2.204830
 O        -1.766198         1.725135         3.139790
 C        -2.129385         0.516930         2.430468
 C        -0.855945        -0.259490         2.187050
 H         1.474344         0.160094         0.572069
 H        -1.747923         0.106200        -1.016077
 H        -1.973352        -1.055771         0.232585
 H        -3.664234         1.028297         0.821922
 H        -1.139056         2.454401        -0.125487
 H        -0.045311         2.749449         2.450813
 H        -1.643835         3.648072         2.185584
 H        -2.879540        -0.168912         2.859072
 H        -0.176822        -0.229503         3.027319
 H        -1.040662        -1.328675         2.106899
