19
Iteration:  2803
 O         0.692692         0.295064         0.187216
 C        -0.610672         0.451641         0.713352
 C        -1.901286        -0.058166        -0.019303
 C        -2.592088         0.902228         1.057831
 C        -1.283038         1.849102         0.857337
 C        -1.020337         2.552610         2.209350
 O        -1.933738         1.775316         3.104721
 C        -2.120440         0.517376         2.528702
 C        -0.720036        -0.210340         2.085293
 H         1.414994        -0.202293         0.763381
 H        -1.942588         0.518547        -0.989018
 H        -1.942573        -1.123941        -0.111603
 H        -3.588719         1.137887         0.826483
 H        -1.344273         2.440594        -0.062915
 H         0.054317         2.405088         2.574081
 H        -1.259417         3.654524         2.317370
 H        -2.852636        -0.089008         3.147355
 H         0.245006        -0.094125         2.668774
 H        -0.854953        -1.311335         2.014645
