19
Iteration:  3095
 O         0.740714         0.386681         0.170133
 C        -0.589401         0.475526         0.808872
 C        -1.867402        -0.083281         0.115420
 C        -2.588719         0.972241         1.001399
 C        -1.262303         1.847544         0.844327
 C        -1.026029         2.472475         2.179620
 O        -1.869755         1.728389         3.108371
 C        -2.248396         0.494342         2.447355
 C        -0.723142        -0.194644         2.126999
 H         0.860282        -0.541040         0.086824
 H        -1.956913         0.103365        -1.001523
 H        -2.174700        -1.151731         0.176104
 H        -3.552461         1.373127         0.723410
 H        -1.499515         2.483916        -0.172765
 H         0.108611         2.242721         2.358684
 H        -1.226500         3.487243         2.230395
 H        -2.987505        -0.090203         2.953535
 H        -0.126211         0.235170         2.898198
 H        -0.608709        -1.274751         2.019384
