19
Iteration:  1511
 O         0.614929         0.173760        -0.027373
 C        -0.543583         0.428771         0.766099
 C        -1.782446         0.029802        -0.027064
 C        -2.507748         0.999744         0.984283
 C        -1.151027         1.898898         0.919351
 C        -1.106181         2.585787         2.340264
 O        -1.951203         1.667603         3.194591
 C        -2.208536         0.497218         2.439110
 C        -0.786447        -0.240547         2.170573
 H         1.434759         0.438174         0.315567
 H        -1.936741         0.260484        -1.029032
 H        -2.144004        -1.085522         0.064506
 H        -3.333496         1.744573         0.808721
 H        -0.902286         2.542987         0.064086
 H        -0.145370         2.815237         2.886443
 H        -1.522167         3.559386         2.184025
 H        -2.959672        -0.250941         2.906395
 H        -0.047112        -0.026772         2.870317
 H        -0.932709        -1.352696         2.149994
