19
Iteration:  2343
 O         0.632603         0.210726         0.078266
 C        -0.548373         0.439138         0.767000
 C        -1.843149        -0.077858        -0.024961
 C        -2.514450         0.917491         0.980833
 C        -1.264342         1.831080         0.853073
 C        -1.202173         2.636779         2.216431
 O        -1.728417         1.706056         3.209869
 C        -2.171496         0.531111         2.476827
 C        -0.807074        -0.176394         2.151726
 H         1.302615         0.191137         0.692118
 H        -1.735179         0.358926        -1.018323
 H        -2.002847        -1.115563         0.079323
 H        -3.518772         1.349977         0.751582
 H        -1.245245         2.520236        -0.041744
 H        -0.203880         2.902099         2.464096
 H        -1.893282         3.506138         2.425764
 H        -2.964678         0.069486         3.049828
 H        -0.028871         0.094669         2.926767
 H        -0.856773        -1.257671         2.018104
