19
Iteration:  3124
 O         0.698197         0.424179         0.185774
 C        -0.608217         0.380970         0.753807
 C        -1.960287        -0.149460        -0.071553
 C        -2.567339         0.912900         0.983476
 C        -1.221045         1.788296         0.874663
 C        -1.033536         2.536657         2.252354
 O        -1.868152         1.810074         3.181910
 C        -2.122209         0.564133         2.433597
 C        -0.728683        -0.254285         2.115966
 H         1.250943        -0.260045         0.772152
 H        -2.072031         0.281894        -1.055472
 H        -2.297511        -1.160582        -0.077784
 H        -3.581566         1.278190         0.752495
 H        -1.411393         2.283797        -0.057617
 H        -0.009725         2.569486         2.548083
 H        -1.358639         3.644093         2.217272
 H        -2.858853        -0.029967         2.950739
 H        -0.004043         0.118261         2.870040
 H        -0.934905        -1.306450         2.101703
