19
Iteration:  3350
 O         0.604987         0.246218         0.087726
 C        -0.605062         0.339953         0.752796
 C        -1.881349        -0.163749         0.074694
 C        -2.465536         1.002156         1.005285
 C        -1.197990         1.868761         0.936630
 C        -1.166992         2.628201         2.300325
 O        -1.909915         1.754990         3.092231
 C        -2.087253         0.533571         2.381873
 C        -0.747705        -0.185481         2.097740
 H         1.412646         0.302753         0.687572
 H        -1.857709         0.051597        -0.978324
 H        -2.131342        -1.242929         0.305559
 H        -3.401049         1.491755         0.830037
 H        -1.172996         2.451440        -0.112056
 H        -0.073854         2.616329         2.592455
 H        -1.563911         3.589851         2.277982
 H        -2.721886        -0.099703         2.969219
 H        -0.070534         0.285898         2.813162
 H        -0.620247        -1.239016         2.148845
