19
Iteration:  3183charge 0 multiplicity 1
 O         0.679447         0.094664         0.081950
 C        -0.578379         0.384281         0.706716
 C        -1.786952        -0.021090        -0.011522
 C        -2.573296         1.084977         0.976950
 C        -1.279111         1.864687         0.963004
 C        -1.245459         2.594355         2.244177
 O        -1.839780         1.735307         3.223085
 C        -2.098687         0.495234         2.402663
 C        -0.753426        -0.174076         2.129624
 H         1.297078         0.468707         0.597904
 H        -1.818150         0.086170        -1.124755
 H        -2.094627        -1.081686         0.186926
 H        -3.561964         1.264534         0.531237
 H        -0.968977         2.522032        -0.087142
 H        -0.159377         2.771375         2.590632
 H        -1.870111         3.416302         2.318151
 H        -2.761953        -0.107580         3.069929
 H        -0.006370         0.343171         2.682336
 H        -0.604303        -1.199206         2.425031
