19
Iteration:  1954charge 0 multiplicity 1
 O         0.655943         0.238990         0.002442
 C        -0.608330         0.401877         0.757794
 C        -1.758289        -0.106071         0.032754
 C        -2.498065         0.965230         1.027636
 C        -1.225531         1.910086         0.880286
 C        -1.180008         2.602106         2.275578
 O        -1.818967         1.723628         3.225360
 C        -2.162213         0.488970         2.438325
 C        -0.839691        -0.154701         2.126106
 H         1.256320        -0.586833         0.298519
 H        -1.855186         0.256610        -1.065859
 H        -2.089076        -1.116904         0.087941
 H        -3.498889         1.280232         0.661481
 H        -1.081011         2.486684        -0.060066
 H        -0.145930         2.825423         2.576718
 H        -1.570683         3.769800         2.299895
 H        -2.980179         0.015382         3.027118
 H        -0.125076         0.168937         2.978751
 H        -0.930864        -1.280767         2.099959
