19
Iteration:  3116
 O         0.677423         0.436655         0.216845
 C        -0.623812         0.372439         0.698900
 C        -1.922792        -0.099196        -0.004174
 C        -2.542094         0.932950         0.969526
 C        -1.273194         1.776793         0.835910
 C        -1.010452         2.509601         2.259696
 O        -1.860745         1.734780         3.120677
 C        -2.091956         0.549148         2.433650
 C        -0.791948        -0.150285         2.159845
 H         1.197460        -0.388073         0.637484
 H        -2.182922         0.162758        -1.048628
 H        -2.161985        -1.154198         0.045294
 H        -3.574786         1.224259         1.019682
 H        -1.101687         2.479749        -0.176873
 H         0.067546         2.421725         2.631177
 H        -1.344878         3.487899         2.149668
 H        -2.728005        -0.074373         3.021883
 H        -0.137479         0.131761         2.951266
 H        -0.920851        -1.213146         2.137840
