19
Iteration:  1037
 O         0.706847         0.283129         0.111082
 C        -0.595810         0.405646         0.733385
 C        -1.836714        -0.007058        -0.025685
 C        -2.584373         1.062593         0.965407
 C        -1.251950         1.775247         0.941047
 C        -1.003485         2.429499         2.382983
 O        -1.913542         1.778036         3.189373
 C        -2.169151         0.493816         2.369099
 C        -0.814463        -0.164797         2.086543
 H         1.022077        -0.575855         0.085058
 H        -1.770390         0.270882        -1.123863
 H        -1.997586        -0.996434         0.101550
 H        -3.546594         1.568592         0.778530
 H        -1.043808         2.464147         0.086283
 H         0.085629         2.516483         2.654391
 H        -1.449256         3.590411         2.337245
 H        -2.815565        -0.061671         3.076549
 H        -0.063444         0.044672         2.867965
 H        -0.941256        -1.225775         1.908719
