19
Iteration:  2012
 O         0.708241         0.332463         0.178783
 C        -0.628651         0.455606         0.723863
 C        -1.846839        -0.110566        -0.048363
 C        -2.623310         0.877510         1.026491
 C        -1.350804         1.841422         0.880069
 C        -0.982722         2.481694         2.238776
 O        -1.820691         1.790316         3.139080
 C        -2.143062         0.545590         2.486519
 C        -0.763799        -0.128750         2.099840
 H         1.011366        -0.500767         0.376278
 H        -1.866959         0.251573        -1.069963
 H        -2.226393        -1.238576        -0.002791
 H        -3.610200         1.282974         0.770778
 H        -1.338328         2.437347         0.003932
 H         0.017641         2.308796         2.618227
 H        -1.310497         3.562670         2.256475
 H        -2.832843         0.084746         3.203443
 H        -0.092516         0.056250         2.872868
 H        -0.775553        -1.241026         2.010002
