19
Iteration:  2831
 O         0.738174         0.316774         0.115613
 C        -0.578895         0.389333         0.722124
 C        -1.934298        -0.061663         0.023021
 C        -2.586564         0.986746         1.022861
 C        -1.263232         1.787309         0.875923
 C        -1.047757         2.473528         2.222692
 O        -1.890178         1.748400         3.155320
 C        -2.187556         0.525342         2.434045
 C        -0.746282        -0.164961         2.150050
 H         1.539883         0.553634         0.746429
 H        -1.984499         0.344260        -0.991999
 H        -2.101537        -1.170132         0.082880
 H        -3.631126         1.362486         0.846623
 H        -1.205131         2.418355        -0.063679
 H        -0.014814         2.394014         2.531980
 H        -1.402080         3.532677         2.155217
 H        -2.930904        -0.046621         2.905926
 H         0.098611         0.143890         2.737739
 H        -0.700492        -1.293948         2.314507
