19
Iteration:  2470charge 0 multiplicity 1
 O         0.638182         0.298104         0.048047
 C        -0.602293         0.408869         0.815795
 C        -1.808999        -0.048103        -0.001641
 C        -2.508387         0.964240         1.020389
 C        -1.215997         1.874511         0.865061
 C        -1.231195         2.592749         2.151358
 O        -1.776134         1.797925         3.205915
 C        -2.092644         0.461953         2.474080
 C        -0.821472        -0.312757         2.151467
 H         1.344985        -0.015480         0.638949
 H        -1.714668         0.256854        -1.026387
 H        -2.075475        -1.227305        -0.079574
 H        -3.607022         1.251896         1.056077
 H        -1.017746         2.485309         0.000662
 H        -0.234462         2.973725         2.566637
 H        -1.889648         3.450871         2.073913
 H        -2.944171         0.016779         3.026615
 H        -0.066877        -0.066857         2.889067
 H        -1.107924        -1.446402         2.081691
