19
Iteration:  1518charge 0 multiplicity 1
 O         0.656374         0.167807         0.000471
 C        -0.542741         0.319879         0.703576
 C        -1.847219         0.003276        -0.032551
 C        -2.496213         1.025408         0.941139
 C        -1.131745         1.909997         0.947640
 C        -1.122579         2.607629         2.341504
 O        -1.943791         1.657227         3.232305
 C        -2.180145         0.509676         2.457117
 C        -0.803526        -0.183181         2.144780
 H         1.374797         0.527921         0.418310
 H        -1.827374         0.301602        -1.116067
 H        -2.204244        -0.983919        -0.011779
 H        -3.413208         1.562869         0.836809
 H        -1.107581         2.672622         0.151309
 H        -0.169986         2.746314         2.830501
 H        -1.682255         3.658336         2.240022
 H        -2.836378        -0.195898         2.904664
 H         0.098645        -0.033807         2.845257
 H        -1.041566        -1.268684         2.146797
