19
Iteration:  1832
 O         0.790805         0.284978         0.153629
 C        -0.563051         0.349367         0.665693
 C        -1.944123         0.009353         0.021627
 C        -2.531257         1.019466         1.067827
 C        -1.243556         1.748492         0.911770
 C        -1.071804         2.558704         2.215635
 O        -1.940935         1.730169         3.173303
 C        -2.185281         0.535233         2.422485
 C        -0.705622        -0.181918         2.095436
 H         0.981132        -0.567040         0.000009
 H        -2.167157         0.473819        -0.980943
 H        -2.355503        -0.945763        -0.167630
 H        -3.513637         1.415107         0.939452
 H        -1.303372         2.393645         0.003607
 H        -0.161753         2.663742         2.756815
 H        -1.647930         3.587668         2.331569
 H        -2.811721        -0.079319         3.027297
 H         0.218686         0.109462         2.779840
 H        -0.790908        -1.246736         2.285415
