19
Iteration:   622
 O         0.684806         0.187672         0.131209
 C        -0.571922         0.388997         0.808593
 C        -1.890738         0.105466         0.052129
 C        -2.494258         1.067189         0.973190
 C        -1.235859         1.876996         0.924539
 C        -1.089422         2.512310         2.300985
 O        -1.843150         1.673923         3.099917
 C        -2.149511         0.498628         2.355526
 C        -0.855139        -0.275754         2.053904
 H         1.348465         0.344409         0.817764
 H        -1.901787         0.490334        -1.028575
 H        -2.311923        -0.884402         0.112614
 H        -3.526695         1.474887         0.942301
 H        -0.882631         2.494831         0.093734
 H         0.036822         2.635244         2.475781
 H        -1.630381         3.596028         2.316923
 H        -2.838141        -0.163742         3.009994
 H        -0.094713        -0.019129         2.836127
 H        -1.118442        -1.336761         2.104538
