19
Iteration:  2979
 O         0.761235         0.453054         0.166999
 C        -0.637170         0.373611         0.763347
 C        -1.951414        -0.034703         0.002256
 C        -2.506971         0.972052         1.025409
 C        -1.246719         1.776197         0.866586
 C        -1.016880         2.513780         2.174293
 O        -1.907064         1.792907         3.078083
 C        -2.166136         0.472764         2.441375
 C        -0.756780        -0.291517         2.270184
 H         0.837103        -0.407152        -0.141269
 H        -1.987745         0.275093        -1.012911
 H        -2.034876        -1.091847        -0.090736
 H        -3.537153         1.416183         0.954816
 H        -1.448612         2.292215         0.031040
 H        -0.010848         2.406664         2.461562
 H        -1.337830         3.636485         2.351568
 H        -2.997157        -0.000907         3.116919
 H         0.233427         0.069570         2.689313
 H        -0.891350        -1.398885         2.210625
