19
Iteration:  4456
 O         0.714880         0.131884         0.191872
 C        -0.525979         0.528590         0.755847
 C        -1.846341         0.066662        -0.039117
 C        -2.497146         0.978814         0.997188
 C        -1.221322         1.911939         0.907315
 C        -1.094109         2.585116         2.260612
 O        -1.912975         1.645205         3.175942
 C        -2.127901         0.415936         2.447045
 C        -0.841577        -0.197642         2.093912
 H         0.510312         0.438218        -0.795089
 H        -2.007974         0.497303        -1.064887
 H        -2.146619        -0.930304         0.083519
 H        -3.602655         1.263993         0.886078
 H        -1.262323         2.694381         0.160378
 H         0.001424         2.643430         2.585447
 H        -1.497570         3.562711         2.416007
 H        -2.838063        -0.250658         3.033711
 H        -0.138571        -0.041436         2.862211
 H        -0.884976        -1.281870         1.893032
