19
Iteration:  4426
 O         0.728004         0.091391         0.107154
 C        -0.521003         0.370407         0.735884
 C        -1.892649         0.056060        -0.051379
 C        -2.475886         1.020920         0.947924
 C        -1.184330         1.851464         0.973046
 C        -1.238890         2.704390         2.327363
 O        -1.855085         1.608610         3.219941
 C        -2.127977         0.546540         2.416573
 C        -0.771620        -0.224868         2.114567
 H         0.727745         0.785447        -0.455761
 H        -1.995775         0.424434        -1.082665
 H        -2.350473        -0.951105        -0.189430
 H        -3.507002         1.412602         0.821014
 H        -1.102556         2.599378         0.240965
 H        -0.269446         2.921905         2.693183
 H        -2.060904         3.555098         2.366814
 H        -2.858771        -0.071812         2.903879
 H         0.039956         0.009215         2.773141
 H        -0.926135        -1.288725         2.144937
