19
Iteration:  2076charge 0 multiplicity 1
 O         0.668320         0.330056         0.096198
 C        -0.574169         0.317755         0.726548
 C        -1.921499        -0.042776         0.002442
 C        -2.476081         0.954203         1.024921
 C        -1.190733         1.791389         0.858950
 C        -1.156384         2.602055         2.228924
 O        -1.890389         1.786231         3.183529
 C        -2.090582         0.568304         2.480351
 C        -0.749908        -0.291389         2.167178
 H         1.177051        -0.500533         0.175363
 H        -2.016642         0.289456        -1.028021
 H        -2.248911        -0.981157         0.138428
 H        -3.405541         1.480146         1.112254
 H        -0.989939         2.441971         0.031506
 H        -0.247158         2.946356         2.689672
 H        -1.829554         3.559467         1.860141
 H        -2.923686        -0.019259         2.897792
 H         0.057177         0.009996         2.779810
 H        -0.999933        -1.369094         2.009125
