19
Iteration:  4041
 O         0.759588         0.232135         0.226889
 C        -0.591552         0.458217         0.710760
 C        -1.941755         0.013820        -0.082749
 C        -2.532667         0.934124         0.989356
 C        -1.199095         1.846371         0.939647
 C        -1.060389         2.566035         2.239265
 O        -1.847323         1.714439         3.166800
 C        -2.176968         0.544600         2.473789
 C        -0.827091        -0.299826         2.097596
 H         1.075809         1.007787        -0.172526
 H        -2.028359         0.380207        -1.165949
 H        -2.196817        -1.038255        -0.117127
 H        -3.585055         1.189328         0.797064
 H        -1.249798         2.449509         0.134272
 H        -0.069918         2.572041         2.819411
 H        -1.380397         3.591110         2.137380
 H        -2.992666        -0.057174         2.926294
 H        -0.037617        -0.120610         2.874888
 H        -1.067003        -1.374526         2.073008
