19
Iteration:  3077
 O         0.702340         0.336370         0.115000
 C        -0.545795         0.414957         0.711035
 C        -1.855781        -0.105443         0.026498
 C        -2.541715         0.886384         0.989672
 C        -1.272973         1.848169         0.885109
 C        -1.074642         2.553290         2.270367
 O        -1.916129         1.782692         3.154282
 C        -2.088867         0.534603         2.424665
 C        -0.808824        -0.182735         2.196789
 H         0.864444        -0.450804        -0.362325
 H        -1.851097         0.159377        -1.048538
 H        -2.120124        -1.204190         0.139810
 H        -3.572058         1.267884         0.813709
 H        -1.015774         2.411557         0.091304
 H        -0.035560         2.600223         2.563901
 H        -1.474890         3.624288         2.408582
 H        -2.928576        -0.000666         2.975102
 H         0.028436         0.102554         2.915428
 H        -1.104934        -1.288960         2.158308
