19
Iteration:  2799charge 0 multiplicity 1
 O         0.688926         0.292735         0.180436
 C        -0.609984         0.441462         0.755873
 C        -1.865082        -0.051228         0.000087
 C        -2.613813         0.910417         1.037582
 C        -1.291926         1.852505         0.858098
 C        -1.032095         2.548144         2.205179
 O        -1.910823         1.776240         3.117717
 C        -2.127603         0.515269         2.510640
 C        -0.695864        -0.222824         2.089047
 H         1.255966        -0.219732         0.654249
 H        -1.952863         0.433326        -0.999421
 H        -1.925715        -1.174370        -0.150891
 H        -3.683503         1.170334         0.838800
 H        -1.303201         2.481216        -0.078708
 H        -0.061459         2.462242         2.620828
 H        -1.271281         3.711798         2.337226
 H        -2.871425         0.019287         3.029143
 H         0.262606        -0.022406         2.522492
 H        -0.961320        -1.375887         1.990819
