19
Iteration:  4474charge 0 multiplicity 1
 O         0.771999         0.319639         0.241387
 C        -0.600482         0.373910         0.663892
 C        -1.914204         0.035609        -0.022863
 C        -2.571379         0.995881         1.020094
 C        -1.281856         1.831387         0.915049
 C        -1.032526         2.451218         2.342818
 O        -1.892228         1.721142         3.163634
 C        -2.154639         0.507802         2.386837
 C        -0.769497        -0.200344         2.087290
 H         0.829583        -0.051889        -0.732464
 H        -1.982513         0.477536        -1.023778
 H        -2.212091        -1.017015        -0.301196
 H        -3.506992         1.505768         0.898930
 H        -1.108126         2.498457        -0.005206
 H        -0.052320         2.260743         2.798362
 H        -1.384646         3.485994         2.301873
 H        -2.943492        -0.029765         2.944682
 H         0.050208         0.114164         2.828585
 H        -0.764444        -1.331135         2.113745
