19
Iteration:  2207
 O         0.748962         0.132554         0.160552
 C        -0.595333         0.385327         0.695274
 C        -1.938816         0.029202        -0.028819
 C        -2.514375         0.994845         1.040044
 C        -1.285744         1.841124         0.855446
 C        -1.181040         2.587700         2.234000
 O        -1.804965         1.682240         3.184502
 C        -2.108299         0.522360         2.482065
 C        -0.776711        -0.123844         2.090211
 H         1.438678         0.459540         0.677980
 H        -2.053042         0.409602        -1.068328
 H        -2.294754        -1.002565         0.116948
 H        -3.538303         1.267916         0.798058
 H        -1.313171         2.404018        -0.070348
 H        -0.139768         2.733658         2.471486
 H        -1.702642         3.524124         2.257460
 H        -2.754202        -0.243145         2.936983
 H        -0.024989         0.327800         2.712132
 H        -0.809648        -1.255668         2.239685
