19
Iteration:   313charge 0 multiplicity 1
 O         0.678299         0.190960         0.232036
 C        -0.599335         0.450892         0.735810
 C        -1.877528         0.033818        -0.039786
 C        -2.537268         1.147248         0.969947
 C        -1.179737         1.886575         0.892770
 C        -1.043931         2.487719         2.222659
 O        -1.902421         1.654881         3.185146
 C        -2.178019         0.450683         2.418364
 C        -0.786080        -0.203061         2.035892
 H         1.218575        -0.149396         0.967385
 H        -2.009583         0.138845        -1.071351
 H        -2.211986        -1.046010         0.175898
 H        -3.498845         1.635640         0.906868
 H        -1.105677         2.499477        -0.000568
 H         0.032790         2.543362         2.626461
 H        -1.381283         3.605066         2.277062
 H        -2.951432        -0.137244         2.786816
 H        -0.155621         0.152713         2.866509
 H        -0.824554        -1.314493         1.971728
