19
Iteration:  2679
 O         0.643618         0.439474         0.136599
 C        -0.624950         0.375309         0.719975
 C        -1.932032        -0.119083         0.106860
 C        -2.490572         0.955385         0.947031
 C        -1.201036         1.828859         0.881869
 C        -1.093417         2.475733         2.250192
 O        -1.879962         1.778874         3.110200
 C        -2.103580         0.468501         2.389296
 C        -0.745364        -0.186005         2.191886
 H         1.255263        -0.409389         0.239222
 H        -2.316008         0.074156        -0.900853
 H        -2.171542        -1.218139         0.209338
 H        -3.482409         1.429811         0.965558
 H        -1.005851         2.619732         0.120232
 H        -0.068566         2.535778         2.606566
 H        -1.398280         3.580525         2.056255
 H        -2.783983        -0.106715         2.910037
 H         0.056893         0.290304         2.701532
 H        -0.909566        -1.357121         2.307161
