19
Iteration:  3724
 O         0.705740         0.307757         0.178085
 C        -0.549228         0.382396         0.781649
 C        -1.917192        -0.040550        -0.015066
 C        -2.481628         0.955885         1.017304
 C        -1.149729         1.862514         0.869608
 C        -1.157826         2.610974         2.203913
 O        -1.891511         1.737738         3.148353
 C        -2.057149         0.526674         2.447569
 C        -0.823522        -0.262631         2.147456
 H         0.719200        -0.645550        -0.302326
 H        -2.034980         0.507219        -0.969975
 H        -2.302995        -0.992326         0.017267
 H        -3.584671         1.241018         0.993037
 H        -1.176623         2.446315        -0.009487
 H        -0.247485         2.895504         2.654194
 H        -1.782320         3.551702         2.078456
 H        -2.806435        -0.090758         3.009820
 H         0.046303        -0.263503         2.840073
 H        -1.108344        -1.285831         2.053053
