19
Iteration:   209charge 0 multiplicity 1
 O         0.731994         0.173156         0.248593
 C        -0.589930         0.478483         0.713047
 C        -1.845976        -0.004281        -0.086368
 C        -2.568229         0.897490         0.930093
 C        -1.190702         1.879043         0.931316
 C        -1.000438         2.486193         2.282164
 O        -1.739510         1.682639         3.193354
 C        -2.227288         0.548538         2.402413
 C        -1.017095        -0.162869         2.099073
 H         1.280536         1.094171         0.226570
 H        -2.139292         0.498264        -1.041669
 H        -1.982769        -1.068942        -0.078877
 H        -3.583251         1.270597         0.865115
 H        -1.066354         2.597830         0.131861
 H         0.052596         2.519976         2.517705
 H        -1.502991         3.595257         2.167541
 H        -3.078049         0.000856         2.912606
 H        -0.244919         0.059579         2.868861
 H        -1.228196        -1.233322         2.114052
