19
Iteration:   808
 O         0.658863         0.353681         0.204972
 C        -0.587147         0.365180         0.769249
 C        -1.916902         0.038783        -0.050139
 C        -2.453696         1.037652         0.953345
 C        -1.253850         1.886344         0.896169
 C        -1.030267         2.569232         2.270632
 O        -1.850489         1.684322         3.139580
 C        -2.107792         0.489024         2.417125
 C        -0.906612        -0.305232         2.132901
 H         1.009826        -0.625923         0.462755
 H        -2.028046         0.319520        -1.204617
 H        -2.069504        -1.015446         0.103243
 H        -3.397939         1.463916         0.966305
 H        -1.015939         2.350156        -0.033701
 H         0.088487         2.345120         2.514595
 H        -1.340689         3.547817         2.363754
 H        -2.985501        -0.067535         2.839556
 H        -0.040371         0.021646         2.772231
 H        -0.975879        -1.401397         2.044970
