19
Iteration:   300charge 0 multiplicity 1
 O         0.624153         0.159970         0.116966
 C        -0.577250         0.468124         0.764397
 C        -1.864467         0.017804         0.035222
 C        -2.457223         1.042163         0.998444
 C        -1.211484         1.946437         0.888704
 C        -1.012944         2.552342         2.323175
 O        -1.914752         1.634957         3.059072
 C        -2.200752         0.468895         2.324410
 C        -0.846660        -0.190477         2.189938
 H         1.282067        -0.166486         0.774185
 H        -1.705029         0.442974        -0.968775
 H        -2.147562        -1.036635         0.070528
 H        -3.422399         1.549101         0.812813
 H        -1.083472         2.558350        -0.030430
 H         0.016344         2.377843         2.677207
 H        -1.475210         3.642397         2.640184
 H        -2.930485        -0.049222         2.920782
 H        -0.066956         0.081017         2.921484
 H        -0.670506        -1.275852         2.077214
