19
Iteration:  1378
 O         0.664929         0.179637         0.079288
 C        -0.539500         0.406382         0.747536
 C        -1.892609         0.074166         0.030147
 C        -2.485847         1.053837         0.972691
 C        -1.237167         1.808259         0.935225
 C        -1.062169         2.614736         2.315186
 O        -1.945948         1.701051         3.171150
 C        -2.120942         0.446195         2.404997
 C        -0.796122        -0.272688         2.058332
 H         1.342901         0.454392         0.775919
 H        -1.968574         0.445688        -1.011031
 H        -2.220982        -1.045217        -0.038298
 H        -3.446953         1.464997         0.811209
 H        -1.193101         2.537041         0.105193
 H        -0.035811         2.864817         2.795891
 H        -1.576365         3.508463         2.307227
 H        -2.917275        -0.088911         2.878233
 H        -0.142192         0.051981         2.813778
 H        -0.630941        -1.352912         1.993152
