19
Iteration:  3962charge 0 multiplicity 1
 O         0.686057         0.213432         0.202979
 C        -0.564227         0.469771         0.772262
 C        -1.904497         0.087769         0.020230
 C        -2.517407         0.978670         0.985524
 C        -1.226927         1.858505         0.916993
 C        -1.049247         2.478963         2.289148
 O        -1.950218         1.744922         3.113560
 C        -2.161113         0.469208         2.442519
 C        -0.703779        -0.255577         2.079624
 H         0.650177         0.209802        -0.706902
 H        -1.920565         0.567672        -1.022240
 H        -2.255006        -1.001910        -0.046176
 H        -3.454450         1.456959         0.776149
 H        -1.042682         2.499037         0.070969
 H         0.005566         2.391472         2.744860
 H        -1.405871         3.477778         2.219658
 H        -2.944871        -0.139070         2.921086
 H         0.024543        -0.006006         2.905156
 H        -0.799012        -1.328937         2.016782
