19
Iteration:  1826charge 0 multiplicity 1
 O         0.769740         0.250011         0.166847
 C        -0.526664         0.377746         0.630169
 C        -1.983144         0.038111        -0.018247
 C        -2.495095         0.959910         1.079704
 C        -1.255847         1.806339         0.932297
 C        -1.125184         2.598698         2.237774
 O        -1.946576         1.738450         3.135203
 C        -2.125790         0.471662         2.458420
 C        -0.683898        -0.176308         2.108828
 H         0.941552        -0.767365         0.079098
 H        -2.198286         0.560991        -1.010724
 H        -2.395136        -1.038620         0.042144
 H        -3.467363         1.541660         1.136092
 H        -1.068613         2.530079         0.128358
 H        -0.044187         2.639468         2.617507
 H        -1.641739         3.532561         2.145181
 H        -3.076810        -0.052763         2.858834
 H         0.002509         0.128895         2.834140
 H        -0.764908        -1.293136         2.200481
