19
Iteration:  2757
 O         0.739171         0.376633         0.093223
 C        -0.565821         0.366578         0.718134
 C        -1.888637        -0.068018         0.077956
 C        -2.533656         0.968675         1.030312
 C        -1.150768         1.795315         0.886454
 C        -1.214974         2.556501         2.206372
 O        -1.825752         1.716755         3.179456
 C        -2.195504         0.567185         2.406184
 C        -0.775267        -0.238775         2.163152
 H         0.859617        -0.618884        -0.186504
 H        -2.015873         0.273417        -1.000286
 H        -2.290172        -1.045980         0.372960
 H        -3.465016         1.470576         0.993036
 H        -0.820641         2.360634        -0.060880
 H        -0.295001         3.010502         2.613247
 H        -1.935535         3.488667         1.901620
 H        -2.902697         0.059394         2.958727
 H        -0.054844         0.070977         2.902812
 H        -0.688227        -1.419474         2.292161
