19
Iteration:  3586charge 0 multiplicity 1
 O         0.725561         0.254981         0.214951
 C        -0.576513         0.418733         0.697628
 C        -1.930274        -0.055170        -0.000640
 C        -2.462889         1.019658         1.037133
 C        -1.306531         1.903866         0.831905
 C        -1.179459         2.617808         2.171684
 O        -1.822128         1.712702         3.114316
 C        -2.128361         0.477028         2.437605
 C        -0.722105        -0.232556         2.182392
 H         0.849753        -0.619142         0.458610
 H        -1.953803         0.211346        -1.075124
 H        -2.103206        -1.152906         0.328541
 H        -3.488544         1.256473         1.179797
 H        -1.410325         2.510699        -0.079931
 H        -0.157510         2.947761         2.450739
 H        -1.752452         3.515187         2.188981
 H        -2.959000        -0.050803         2.956124
 H         0.100976         0.029526         2.856405
 H        -0.796165        -1.408916         2.183822
