19
Iteration:  4249
 O         0.792461         0.235646         0.212632
 C        -0.592562         0.436938         0.681290
 C        -1.949663         0.035227        -0.026616
 C        -2.430178         0.995208         1.001732
 C        -1.191292         1.884973         0.928382
 C        -1.121596         2.523557         2.301154
 O        -1.914872         1.653616         3.118792
 C        -2.157691         0.464587         2.462593
 C        -0.818928        -0.186552         2.123967
 H         0.730578         0.151275        -0.761724
 H        -2.212671         0.456370        -1.099927
 H        -2.373117        -0.965274         0.183129
 H        -3.402421         1.543585         0.804804
 H        -1.231679         2.496809         0.107156
 H        -0.114896         2.492597         2.825251
 H        -1.426818         3.672015         2.209247
 H        -2.866549        -0.175885         3.080398
 H        -0.037905         0.009800         2.814325
 H        -0.851526        -1.251696         1.883152
