19
Iteration:  4022charge 0 multiplicity 1
 O         0.745057         0.204221         0.290484
 C        -0.577305         0.377529         0.738259
 C        -1.878795         0.060144         0.003102
 C        -2.532824         1.072997         1.034665
 C        -1.257428         1.831343         0.896430
 C        -1.160998         2.543428         2.200127
 O        -1.836716         1.687107         3.162357
 C        -2.078682         0.435766         2.402283
 C        -0.818042        -0.272807         2.022855
 H         0.583491         0.897277        -0.448174
 H        -1.721504         0.545791        -0.937821
 H        -2.255930        -0.905641         0.040452
 H        -3.406281         1.824228         1.063788
 H        -0.877466         2.294596        -0.090587
 H        -0.201781         2.848058         2.504321
 H        -1.710231         3.602670         2.223068
 H        -2.867483        -0.028154         3.015988
 H        -0.189961        -0.047495         2.852045
 H        -1.125558        -1.376942         1.978127
