19
Iteration:  1571
 O         0.629092         0.277088         0.148499
 C        -0.552520         0.463950         0.763810
 C        -1.803500         0.030425        -0.033902
 C        -2.541528         0.956110         0.979565
 C        -1.322483         1.891189         0.888698
 C        -1.061105         2.499664         2.277447
 O        -1.784142         1.712474         3.160431
 C        -2.170564         0.498660         2.397818
 C        -0.863195        -0.282762         2.118452
 H         1.307014         0.020346         0.765955
 H        -1.919176         0.635828        -0.997195
 H        -2.010343        -1.010318        -0.048438
 H        -3.513836         1.341155         0.881761
 H        -1.085781         2.522149         0.034840
 H        -0.015124         2.408518         2.551660
 H        -1.414362         3.521757         2.372699
 H        -2.927780        -0.006534         2.918264
 H        -0.020866        -0.105964         2.877365
 H        -1.037275        -1.337151         2.006563
