19
Iteration:   119charge 0 multiplicity 1
 O         0.688474         0.064605         0.200067
 C        -0.541719         0.521063         0.748859
 C        -1.860282         0.083417        -0.041291
 C        -2.520530         0.996495         0.951312
 C        -1.201927         1.947115         0.937070
 C        -1.021234         2.523891         2.384516
 O        -2.004623         1.713808         3.112862
 C        -2.111710         0.463031         2.425510
 C        -0.769026        -0.171266         2.078352
 H         0.353238        -0.554266        -0.588365
 H        -1.756419         0.524627        -0.983481
 H        -2.192278        -1.007966        -0.161613
 H        -3.500342         1.429297         0.717300
 H        -1.186719         2.667347         0.133339
 H        -0.050384         2.411473         2.861367
 H        -1.528177         3.589063         2.532333
 H        -2.814851        -0.095674         2.992852
 H         0.015876        -0.018311         2.847006
 H        -0.857693        -1.256568         1.847726
