19
Iteration:  2261
 O         0.621356         0.276396        -0.086958
 C        -0.543919         0.470659         0.809667
 C        -1.847607        -0.147488         0.076995
 C        -2.519491         0.969898         0.961169
 C        -1.227939         1.865171         0.867620
 C        -1.062649         2.516749         2.277431
 O        -1.906478         1.753136         3.167935
 C        -2.183876         0.534275         2.435458
 C        -0.788495        -0.197690         2.280874
 H         1.421001         0.243886         0.359668
 H        -1.689702         0.303520        -0.971063
 H        -1.901952        -1.319587         0.055654
 H        -3.497045         1.347227         0.672821
 H        -1.151454         2.604639         0.083676
 H         0.104341         2.526433         2.501934
 H        -1.425815         3.500289         2.376360
 H        -2.998027        -0.098860         2.851105
 H        -0.160806         0.112466         3.106458
 H        -0.952592        -1.320564         2.163922
