19
Iteration:  1762charge 0 multiplicity 1
 O         0.685883         0.333670         0.089141
 C        -0.595297         0.376436         0.717788
 C        -1.931375        -0.024860         0.032615
 C        -2.524655         0.978231         1.039971
 C        -1.211653         1.799484         0.903662
 C        -1.034435         2.517321         2.224458
 O        -1.898611         1.702619         3.139518
 C        -2.130502         0.557527         2.450514
 C        -0.823911        -0.226439         2.154144
 H         1.361991         0.501886         0.738365
 H        -1.911641         0.259964        -0.947866
 H        -2.069921        -1.118060         0.021767
 H        -3.501475         1.475332         0.739119
 H        -0.953422         2.325902        -0.018238
 H        -0.005588         2.670678         2.625194
 H        -1.548760         3.563913         2.194812
 H        -2.958027         0.001537         2.990891
 H         0.026234        -0.146855         2.824776
 H        -0.912896        -1.338460         1.904659
