19
Iteration:   662
 O         0.722523         0.283627         0.184366
 C        -0.556858         0.385324         0.731358
 C        -1.822304         0.072252        -0.011586
 C        -2.591802         1.025876         0.964198
 C        -1.310152         1.824224         0.922982
 C        -1.053859         2.481488         2.253900
 O        -1.767782         1.724375         3.198051
 C        -2.164282         0.554500         2.421162
 C        -0.941498        -0.273603         2.054635
 H         1.474384        -0.115777         0.697606
 H        -1.897076         0.452500        -1.003548
 H        -2.060129        -1.033690        -0.187016
 H        -3.620098         1.431102         0.633314
 H        -1.198392         2.447570        -0.020010
 H         0.021456         2.420124         2.554683
 H        -1.302383         3.453757         2.419069
 H        -2.947065         0.028200         3.030935
 H        -0.172053        -0.179157         2.809737
 H        -1.179168        -1.360369         1.920444
