19
Iteration:   807charge 0 multiplicity 1
 O         0.659335         0.356522         0.209059
 C        -0.580999         0.376136         0.771753
 C        -1.929370         0.047512        -0.053287
 C        -2.458395         1.026863         0.946909
 C        -1.245199         1.875487         0.882712
 C        -1.033079         2.559338         2.271743
 O        -1.848175         1.683997         3.145391
 C        -2.101568         0.491279         2.423554
 C        -0.910782        -0.299752         2.135940
 H         1.000543        -0.643805         0.445616
 H        -2.025625         0.301505        -1.195288
 H        -2.085541        -1.008340         0.083913
 H        -3.421244         1.467934         0.940039
 H        -0.983715         2.360472        -0.025823
 H         0.083743         2.367497         2.505500
 H        -1.330676         3.588207         2.364127
 H        -2.988877        -0.101883         2.832692
 H        -0.043171         0.004552         2.777670
 H        -0.968001        -1.389091         2.062194
