19
Iteration:  3676
 O         0.651817         0.197134         0.197247
 C        -0.593118         0.378122         0.686118
 C        -1.871376        -0.096675        -0.009456
 C        -2.468470         0.893596         0.918070
 C        -1.298808         1.875642         0.867785
 C        -1.034331         2.552812         2.269890
 O        -1.887087         1.712732         3.216240
 C        -2.143258         0.528024         2.461245
 C        -0.797299        -0.028582         2.127653
 H         0.979233         0.915166        -0.347805
 H        -1.936715         0.288563        -1.028001
 H        -2.033558        -1.236477         0.148814
 H        -3.461599         1.263519         0.783357
 H        -1.186162         2.463296        -0.210523
 H         0.036621         2.404320         2.506522
 H        -1.269946         3.640204         2.408061
 H        -2.856666        -0.015892         3.042381
 H        -0.037003         0.196194         2.909000
 H        -0.888111        -1.208668         2.333071
