19
Iteration:   383charge 0 multiplicity 1
 O         0.705604         0.217438         0.125317
 C        -0.622633         0.395730         0.739380
 C        -1.863574        -0.008179        -0.060678
 C        -2.509409         1.062328         0.939133
 C        -1.166955         1.895199         0.938082
 C        -1.044316         2.594247         2.307642
 O        -1.840338         1.652373         3.188756
 C        -2.215039         0.508340         2.346633
 C        -0.890874        -0.255099         2.145434
 H         1.339382         0.009215         0.759429
 H        -1.840103         0.183839        -1.224413
 H        -2.226481        -1.043945         0.070935
 H        -3.493089         1.583715         0.822152
 H        -0.994087         2.560810         0.062679
 H         0.026647         2.702537         2.747544
 H        -1.475089         3.534251         2.479901
 H        -3.123396         0.025263         2.912468
 H        -0.195705         0.082205         2.955650
 H        -1.003067        -1.359834         2.127585
