19
Iteration:  4218charge 0 multiplicity 1
 O         0.652493         0.314861         0.195091
 C        -0.628866         0.430748         0.771665
 C        -1.811788        -0.021792        -0.025208
 C        -2.534099         0.947716         0.912676
 C        -1.249056         1.840400         0.937631
 C        -0.981062         2.413247         2.305289
 O        -1.886027         1.717507         3.143320
 C        -2.189679         0.571120         2.433162
 C        -0.796894        -0.188224         2.150091
 H         0.648596         0.970021        -0.546328
 H        -1.925873         0.347503        -1.094195
 H        -2.096431        -1.089327        -0.064117
 H        -3.587088         1.308171         0.646157
 H        -1.022725         2.476692         0.107952
 H         0.025925         2.079300         2.667256
 H        -1.062806         3.451059         2.243081
 H        -2.908531        -0.049124         3.023572
 H         0.007999        -0.135008         2.833391
 H        -0.941845        -1.286091         1.965561
