19
Iteration:    23
 O         0.821671         0.251735         0.298756
 C        -0.621686         0.360080         0.607773
 C        -1.990881         0.113561        -0.209714
 C        -2.563227         1.006485         1.015924
 C        -1.219132         1.786792         0.916669
 C        -0.968610         2.470795         2.257536
 O        -1.858330         1.735654         3.254809
 C        -2.203406         0.526116         2.457226
 C        -0.879778        -0.241447         2.017200
 H         1.209815         0.106836         1.272357
 H        -2.051927         0.756862        -1.095866
 H        -2.282180        -0.889473        -0.484310
 H        -3.519860         1.448468         0.958685
 H        -1.193815         2.374250         0.014017
 H         0.088170         2.430881         2.575763
 H        -1.317769         3.495399         2.263230
 H        -2.829197        -0.087445         3.087714
 H        -0.060401         0.112468         2.643230
 H        -0.988792        -1.308619         2.169116
