19
Iteration:  4262charge 0 multiplicity 1
 O         0.676419         0.168040         0.257371
 C        -0.550731         0.470790         0.733534
 C        -1.897687         0.075717        -0.014324
 C        -2.534603         1.025366         1.008488
 C        -1.185025         1.896086         0.911844
 C        -1.156184         2.533638         2.284653
 O        -1.906666         1.658663         3.159021
 C        -2.073638         0.481755         2.377810
 C        -0.730146        -0.229677         2.083993
 H         0.640965        -0.002219        -0.745232
 H        -1.980573         0.494250        -1.090629
 H        -2.114239        -1.033296        -0.128287
 H        -3.600023         1.437428         1.016961
 H        -0.957729         2.597323         0.123528
 H        -0.110772         2.858001         2.612068
 H        -1.854570         3.391507         2.309664
 H        -2.909476        -0.093091         2.832468
 H         0.085404        -0.066922         2.764785
 H        -0.869780        -1.348856         2.032524
