19
Iteration:  4757charge 0 multiplicity 1
 O         0.612971         0.151653         0.086551
 C        -0.599001         0.433509         0.728849
 C        -1.865802         0.017182        -0.050986
 C        -2.523769         0.967750         1.004242
 C        -1.235687         1.944787         0.885281
 C        -0.966205         2.470143         2.361623
 O        -1.984089         1.731605         3.076221
 C        -2.154817         0.412239         2.472236
 C        -0.740579        -0.126257         2.168149
 H         1.217374         0.824227         0.347549
 H        -1.701891         0.517832        -1.027538
 H        -2.081660        -1.131640        -0.146082
 H        -3.456222         1.538121         0.967061
 H        -1.074955         2.695650         0.005617
 H         0.033359         2.233994         2.808051
 H        -1.207190         3.441808         2.569827
 H        -2.952011        -0.150917         3.126501
 H         0.055423         0.184531         2.860763
 H        -0.769239        -1.216602         2.056562
