19
Iteration:  2177
 O         0.576820         0.285917         0.062314
 C        -0.593355         0.441462         0.814419
 C        -1.776080        -0.038933         0.016994
 C        -2.516036         0.957990         1.009070
 C        -1.258119         1.884199         0.889927
 C        -1.105801         2.581130         2.201717
 O        -1.772807         1.724064         3.138095
 C        -2.124299         0.517420         2.437042
 C        -0.868231        -0.259468         2.190342
 H         1.508813         0.146792         0.566224
 H        -1.751877         0.097205        -0.989314
 H        -1.971033        -1.022250         0.202590
 H        -3.654505         1.042360         0.812510
 H        -1.149196         2.421754        -0.134561
 H        -0.072247         2.739546         2.431542
 H        -1.645072         3.656791         2.218924
 H        -2.887831        -0.158261         2.878339
 H        -0.179023        -0.230410         2.984483
 H        -1.055295        -1.344410         2.117905
