19
Iteration:  3002
 O         0.710585         0.270976         0.221041
 C        -0.559859         0.480934         0.734544
 C        -1.847516        -0.077097         0.018230
 C        -2.560530         0.922888         1.002331
 C        -1.283569         1.839360         0.901982
 C        -1.099461         2.532435         2.184084
 O        -1.837382         1.755713         3.244360
 C        -2.126243         0.501669         2.359631
 C        -0.818667        -0.110503         2.086077
 H         0.667217        -0.605394        -0.330023
 H        -1.957664         0.187109        -0.982025
 H        -2.023620        -1.134384        -0.004042
 H        -3.669857         1.106448         0.844502
 H        -1.164103         2.451081         0.094370
 H        -0.137456         2.514280         2.585563
 H        -1.473362         3.621515         2.056480
 H        -2.727658        -0.135299         3.119757
 H         0.034661         0.193924         2.783714
 H        -0.861156        -1.185496         1.962731
