19
Iteration:   772
 O         0.762721         0.311420         0.216443
 C        -0.585638         0.407578         0.688956
 C        -1.887706         0.052400        -0.059900
 C        -2.514592         1.004904         1.028973
 C        -1.233591         1.785266         0.912898
 C        -1.030016         2.532518         2.259202
 O        -1.845379         1.715243         3.175569
 C        -2.191390         0.514736         2.428926
 C        -0.915444        -0.266310         2.086935
 H         1.026251        -0.568024        -0.331408
 H        -2.002516         0.464762        -1.073516
 H        -2.142711        -1.031339         0.109671
 H        -3.517342         1.544382         0.831767
 H        -1.121267         2.398418        -0.002310
 H         0.048213         2.465698         2.559602
 H        -1.369464         3.615903         2.490922
 H        -3.068758        -0.042992         2.936540
 H        -0.181631         0.214387         2.746352
 H        -0.939303        -1.348795         2.323984
