19
Iteration:  4691charge 0 multiplicity 1
 O         0.757392         0.220783         0.240485
 C        -0.605352         0.410098         0.778203
 C        -1.911835         0.084399        -0.030606
 C        -2.519482         1.067481         1.030368
 C        -1.200607         1.858726         0.954684
 C        -1.197663         2.573826         2.254504
 O        -1.745837         1.681648         3.150852
 C        -2.193438         0.463223         2.403705
 C        -0.798387        -0.333212         2.066029
 H         0.640768         0.478895        -0.719308
 H        -1.809559         0.609337        -1.000741
 H        -2.273425        -1.037604        -0.190385
 H        -3.513895         1.468120         0.859210
 H        -1.013223         2.461983         0.005690
 H        -0.175029         2.907630         2.514115
 H        -1.855297         3.443160         2.066348
 H        -2.906999        -0.201836         2.997877
 H        -0.137858        -0.176547         2.937285
 H        -0.904555        -1.382300         1.810761
