19
Iteration:   959
 O         0.783104         0.261685         0.159378
 C        -0.608747         0.447704         0.704989
 C        -1.870442         0.030324        -0.082412
 C        -2.577741         1.011943         1.014119
 C        -1.267202         1.875113         0.967731
 C        -1.029419         2.501530         2.287428
 O        -1.845364         1.708429         3.185207
 C        -2.146152         0.523434         2.381383
 C        -0.898053        -0.250044         2.087296
 H         1.025531        -0.720043         0.518715
 H        -1.911231         0.300767        -1.148298
 H        -2.181352        -0.932675         0.069436
 H        -3.561762         1.332023         0.882233
 H        -1.214748         2.557687         0.178896
 H         0.049879         2.526003         2.453995
 H        -1.308223         3.651148         2.180859
 H        -2.837325        -0.115419         2.992781
 H        -0.158517         0.004804         2.858007
 H        -1.025303        -1.292082         2.184489
