19
Iteration:  1418
 O         0.623658         0.318177         0.123411
 C        -0.587156         0.420125         0.765145
 C        -1.780973        -0.007013        -0.020855
 C        -2.506650         0.976266         0.958334
 C        -1.265021         1.894117         0.971953
 C        -1.060936         2.552736         2.265908
 O        -1.748177         1.724706         3.213396
 C        -2.235466         0.466329         2.388602
 C        -0.885182        -0.325351         2.081522
 H         1.424569         0.063307         0.663378
 H        -1.772143         0.399959        -1.118163
 H        -2.162362        -0.954493        -0.093254
 H        -3.481452         1.365791         0.587934
 H        -1.166678         2.387936        -0.018114
 H        -0.074557         2.903143         2.478579
 H        -1.724736         3.573687         2.158453
 H        -2.872315        -0.065452         3.071019
 H        -0.182926        -0.178655         3.002622
 H        -1.032239        -1.398206         1.965442
