19
Iteration:  4346
 O         0.742898         0.378769         0.254440
 C        -0.550152         0.401222         0.707940
 C        -1.943115        -0.014308         0.006243
 C        -2.602593         0.967676         0.959360
 C        -1.209238         1.807428         0.854232
 C        -0.953653         2.419280         2.295345
 O        -1.894803         1.711695         3.172392
 C        -2.151560         0.456435         2.431558
 C        -0.862629        -0.152683         2.100323
 H         0.684792         0.718515        -0.590030
 H        -1.840784         0.435096        -0.986102
 H        -2.283817        -1.001303         0.053875
 H        -3.624032         1.435995         0.863414
 H        -1.073831         2.405400        -0.035636
 H         0.087487         2.334673         2.436442
 H        -1.100767         3.492040         2.399316
 H        -2.862856        -0.266891         2.970341
 H        -0.129646         0.098791         2.834444
 H        -1.043953        -1.212389         1.985454
