19
Iteration:  1823
 O         0.762869         0.228702         0.163885
 C        -0.528255         0.391814         0.640542
 C        -1.996830         0.036401        -0.027286
 C        -2.491212         0.947064         1.076431
 C        -1.242762         1.839274         0.934316
 C        -1.142511         2.594309         2.252782
 O        -1.946018         1.742308         3.127360
 C        -2.103216         0.451822         2.469608
 C        -0.698798        -0.186898         2.113447
 H         0.906957        -0.658025         0.126707
 H        -2.173260         0.574780        -1.070548
 H        -2.344183        -0.992331         0.091655
 H        -3.416705         1.521057         1.142414
 H        -1.037839         2.551573         0.101916
 H        -0.102841         2.663898         2.535667
 H        -1.594004         3.530146         2.077914
 H        -3.011053        -0.033945         2.829054
 H        -0.007259         0.192239         2.874608
 H        -0.737734        -1.262332         2.125090
