19
Iteration:  2847
 O         0.577580         0.267875         0.062784
 C        -0.584879         0.417683         0.790652
 C        -1.809905        -0.105781         0.065863
 C        -2.500957         0.955650         0.907930
 C        -1.238653         1.868805         0.881162
 C        -1.064294         2.573325         2.220195
 O        -1.866691         1.705633         3.171309
 C        -2.161353         0.495545         2.423401
 C        -0.779415        -0.202276         2.153428
 H         1.241307         0.829935         0.665482
 H        -1.781840         0.167070        -1.024329
 H        -2.252206        -1.070133         0.262091
 H        -3.462198         1.380111         0.712562
 H        -0.995753         2.463608         0.026512
 H        -0.023694         2.681449         2.682384
 H        -1.451603         3.661516         2.444894
 H        -2.944635        -0.069036         3.095491
 H        -0.172893         0.181133         3.062262
 H        -0.756571        -1.334172         2.019379
