19
Iteration:  3394charge 0 multiplicity 1
 O         0.612853         0.197837         0.098364
 C        -0.534964         0.385113         0.729739
 C        -1.767038        -0.036018        -0.003299
 C        -2.548905         0.821791         1.005197
 C        -1.333879         1.845803         0.904499
 C        -1.054746         2.546358         2.273483
 O        -1.904539         1.860673         3.117088
 C        -2.129451         0.523661         2.451725
 C        -0.795335        -0.167055         2.158122
 H         1.329604         0.858812         0.460388
 H        -1.850748         0.459551        -0.954878
 H        -2.083349        -1.090379        -0.152956
 H        -3.577817         1.085168         0.949359
 H        -1.204208         2.346750        -0.147389
 H        -0.016930         2.339638         2.657052
 H        -1.262571         3.561658         2.358441
 H        -2.827920        -0.004393         3.051565
 H        -0.021144         0.197686         2.814786
 H        -0.747868        -1.219674         2.290669
