19
Iteration:  4850charge 0 multiplicity 1
 O         0.760362         0.093807         0.249716
 C        -0.532303         0.452711         0.715003
 C        -1.920091         0.074141        -0.042969
 C        -2.562332         0.919906         1.001116
 C        -1.210072         1.820709         0.870869
 C        -1.171439         2.609752         2.233558
 O        -1.823388         1.712159         3.216184
 C        -2.116449         0.536898         2.440969
 C        -0.820337        -0.222580         2.071159
 H         1.127555         0.722421        -0.529647
 H        -2.056396         0.594709        -1.021405
 H        -2.246791        -1.010835         0.031180
 H        -3.536614         1.446453         0.965732
 H        -1.296898         2.408912        -0.018192
 H        -0.161927         2.904388         2.529036
 H        -1.884999         3.478295         2.305018
 H        -2.842759        -0.029637         2.980843
 H         0.009359         0.079595         2.757606
 H        -0.992799        -1.290576         2.089275
