19
Iteration:   762charge 0 multiplicity 1
 O         0.696433         0.306492         0.211466
 C        -0.576478         0.439773         0.718584
 C        -1.905334         0.027745        -0.063485
 C        -2.505319         0.990130         0.937034
 C        -1.169454         1.905006         0.881938
 C        -1.042876         2.517111         2.272693
 O        -1.887193         1.727023         3.188691
 C        -2.120733         0.475859         2.423195
 C        -0.856548        -0.272590         2.176160
 H         0.648309        -0.623443        -0.308715
 H        -1.987413         0.368376        -1.135334
 H        -2.341202        -1.006054        -0.000032
 H        -3.555420         1.392713         0.820878
 H        -1.044964         2.460182        -0.049406
 H         0.014849         2.362041         2.621528
 H        -1.338259         3.571715         2.349094
 H        -2.883874        -0.051794         3.110072
 H        -0.135240        -0.140487         3.019603
 H        -1.093737        -1.348557         2.033072
