19
Iteration:  2069
 O         0.674552         0.384086         0.116146
 C        -0.565235         0.291591         0.727805
 C        -1.960029        -0.013108         0.023331
 C        -2.477594         1.011970         1.038847
 C        -1.168397         1.785993         0.926410
 C        -1.177211         2.620247         2.138825
 O        -1.906898         1.778944         3.166152
 C        -2.037917         0.527952         2.462976
 C        -0.762185        -0.333561         2.154631
 H         1.093201        -0.580663         0.183561
 H        -2.053259         0.267787        -1.005286
 H        -2.478220        -1.064628         0.246495
 H        -3.479695         1.487536         0.830382
 H        -0.855398         2.222287        -0.063896
 H        -0.258058         2.893091         2.692712
 H        -1.720144         3.520370         1.947018
 H        -2.737080        -0.105439         3.025069
 H         0.013441         0.011154         2.844724
 H        -0.917327        -1.435345         2.120990
