19
Iteration:    32charge 0 multiplicity 1
 O         0.771690         0.263824         0.331388
 C        -0.585811         0.472237         0.679447
 C        -2.022861         0.157762        -0.214164
 C        -2.594484         0.985876         0.978947
 C        -1.237151         1.816405         0.906511
 C        -1.023336         2.390480         2.254014
 O        -1.795260         1.743654         3.157300
 C        -2.123609         0.486314         2.451314
 C        -0.876437        -0.292736         2.103368
 H         1.299138        -0.044436         1.174246
 H        -2.162400         0.592262        -1.136120
 H        -2.262812        -0.904770        -0.174100
 H        -3.572775         1.494776         0.866669
 H        -0.954566         2.558538         0.146990
 H         0.022780         2.274648         2.417440
 H        -1.268253         3.528506         2.219340
 H        -2.896022         0.005067         3.018466
 H        -0.129101         0.002371         2.816949
 H        -1.027510        -1.314207         1.930112
