19
Iteration:   522charge 0 multiplicity 1
 O         0.693614         0.232553         0.105435
 C        -0.579070         0.409183         0.725427
 C        -1.760039        -0.009067        -0.122038
 C        -2.558688         0.962116         0.946677
 C        -1.290213         1.821231         0.922820
 C        -1.054077         2.544250         2.341068
 O        -1.774697         1.730219         3.254357
 C        -2.269038         0.591329         2.481608
 C        -0.878269        -0.245519         2.088739
 H         1.313949         0.013397         0.930055
 H        -1.821524         0.401633        -1.114174
 H        -2.066176        -1.067782        -0.289714
 H        -3.508808         1.457038         0.551008
 H        -1.321463         2.421157        -0.010448
 H        -0.027964         2.473521         2.516351
 H        -1.245047         3.694853         2.373310
 H        -3.225292         0.243996         2.976290
 H        -0.112366        -0.082881         2.868880
 H        -0.909225        -1.333971         1.844950
