19
Iteration:  1391charge 0 multiplicity 1
 O         0.727778         0.256432         0.036652
 C        -0.544906         0.396913         0.706437
 C        -1.893759         0.034947        -0.042581
 C        -2.486877         1.018972         1.009091
 C        -1.154216         1.915842         0.938970
 C        -1.191036         2.513490         2.259760
 O        -1.854815         1.705340         3.204210
 C        -2.191500         0.493688         2.430449
 C        -0.840700        -0.299684         2.177534
 H         1.507447         0.332958         0.671938
 H        -1.933261         0.388267        -1.032908
 H        -2.381811        -1.033932         0.081871
 H        -3.443182         1.511222         0.867304
 H        -1.010364         2.497298         0.044921
 H        -0.115877         2.726604         2.589918
 H        -1.644309         3.487190         2.164227
 H        -2.947119        -0.093231         3.022856
 H        -0.105830        -0.215119         2.945720
 H        -1.149712        -1.372109         2.042190
