19
Iteration:  2140charge 0 multiplicity 1
 O         0.687371         0.334067         0.117045
 C        -0.550416         0.364521         0.686151
 C        -1.990562        -0.036201        -0.002183
 C        -2.546781         0.940892         1.011524
 C        -1.190290         1.761391         0.900365
 C        -1.026261         2.512674         2.225782
 O        -1.948857         1.806845         3.174811
 C        -2.100015         0.495898         2.472071
 C        -0.777127        -0.170109         2.097889
 H         1.389281        -0.064909         0.790760
 H        -2.105638         0.237446        -1.114031
 H        -2.181450        -1.095965         0.255823
 H        -3.521386         1.310191         1.008270
 H        -1.088443         2.332637         0.035085
 H        -0.003669         2.617168         2.607374
 H        -1.476999         3.470754         2.171204
 H        -2.853727         0.024587         3.103994
 H         0.133736         0.273652         2.570811
 H        -0.829866        -1.275954         2.208628
