19
Iteration:   446
 O         0.624315         0.144616        -0.023354
 C        -0.480824         0.428663         0.827194
 C        -1.760320         0.042386        -0.008408
 C        -2.515606         1.003352         0.968498
 C        -1.180752         1.874376         0.960280
 C        -1.075139         2.495052         2.311610
 O        -1.910872         1.710109         3.186300
 C        -2.280082         0.537541         2.412198
 C        -0.862318        -0.200572         2.153500
 H         1.394174         0.307815         0.460065
 H        -1.609811         0.529936        -0.945788
 H        -2.073185        -1.022062        -0.115342
 H        -3.442312         1.519428         0.626394
 H        -1.075819         2.475282         0.054239
 H        -0.035169         2.469248         2.555004
 H        -1.418797         3.616929         2.302765
 H        -3.122993        -0.032832         2.885329
 H        -0.206845         0.102643         2.989469
 H        -0.864164        -1.308664         2.092316
