19
Iteration:  1218
 O         0.683351         0.276081         0.001583
 C        -0.610973         0.434505         0.738806
 C        -1.876089        -0.043351        -0.036510
 C        -2.443991         1.047752         1.039501
 C        -1.115171         1.826123         0.909041
 C        -1.015912         2.494442         2.258416
 O        -1.964871         1.717828         3.222149
 C        -2.210469         0.491047         2.418454
 C        -0.851661        -0.237993         2.128525
 H         1.406491         0.269719         0.777927
 H        -1.997393         0.463016        -0.965462
 H        -2.245659        -1.095025        -0.041923
 H        -3.395984         1.499068         1.015177
 H        -0.979250         2.462701         0.099683
 H        -0.107064         2.646043         2.774284
 H        -1.510695         3.610766         2.257214
 H        -3.042628        -0.137429         2.808122
 H        -0.223908         0.111855         2.983140
 H        -0.805497        -1.377152         2.240942
