19
Iteration:  3517charge 0 multiplicity 1
 O         0.615549         0.415592         0.141860
 C        -0.589085         0.369570         0.813327
 C        -1.842823        -0.172307         0.117989
 C        -2.544391         0.927989         0.999627
 C        -1.198425         1.845354         0.779429
 C        -0.962836         2.472743         2.206754
 O        -1.964482         1.746870         3.163322
 C        -2.162677         0.581239         2.387015
 C        -0.751923        -0.124946         2.128280
 H         1.200057        -0.479649         0.065704
 H        -2.000782         0.181223        -0.983683
 H        -2.132738        -1.201711         0.419128
 H        -3.638834         1.220040         0.764573
 H        -1.026293         2.431229        -0.050652
 H         0.082685         2.523905         2.647845
 H        -1.327135         3.422814         2.242542
 H        -3.007965         0.015972         2.850513
 H        -0.038085         0.201575         2.918167
 H        -0.801636        -1.192226         2.065825
