19
Iteration:  4765charge 0 multiplicity 1
 O         0.601606         0.235551         0.123901
 C        -0.577389         0.424792         0.727621
 C        -1.872321         0.005483        -0.024454
 C        -2.557799         0.995273         0.950539
 C        -1.217765         1.863192         0.941762
 C        -0.999982         2.390825         2.333045
 O        -1.971829         1.788981         3.093630
 C        -2.128676         0.451202         2.452758
 C        -0.712617        -0.174273         2.139659
 H         1.185949         0.727343         0.603724
 H        -1.919599         0.426066        -0.964697
 H        -2.292182        -0.910581        -0.108012
 H        -3.570906         1.463014         0.918574
 H        -1.031759         2.599002         0.081295
 H         0.083315         2.166261         2.518316
 H        -1.149957         3.484282         2.391851
 H        -2.939141        -0.134403         2.971156
 H         0.164575         0.072364         2.827613
 H        -0.711623        -1.258198         2.036788
