19
Iteration:   511charge 0 multiplicity 1
 O         0.680935         0.223562         0.180842
 C        -0.599949         0.450701         0.715116
 C        -1.823035         0.065385        -0.119515
 C        -2.469172         0.935433         0.964272
 C        -1.286215         1.887644         0.879438
 C        -1.070182         2.474426         2.224253
 O        -1.756973         1.696781         3.189806
 C        -2.197094         0.525982         2.464868
 C        -0.949882        -0.217381         2.155972
 H         1.440134         0.068282         0.878649
 H        -1.797672         0.699265        -0.967038
 H        -2.024788        -1.025009        -0.212303
 H        -3.537918         1.296150         0.887306
 H        -1.214900         2.659934         0.096671
 H        -0.063688         2.404073         2.426035
 H        -1.413309         3.579520         2.404520
 H        -2.940836         0.013000         3.148786
 H        -0.174555        -0.078460         2.929014
 H        -1.203349        -1.302243         2.072954
