19
Iteration:   149
 O         0.757400         0.128303         0.175974
 C        -0.536864         0.392999         0.711903
 C        -1.851028         0.002619        -0.014378
 C        -2.531261         1.073072         0.914405
 C        -1.228856         1.859707         0.996579
 C        -1.020884         2.480471         2.340577
 O        -1.891663         1.723159         3.219306
 C        -2.284596         0.530079         2.373359
 C        -0.829986        -0.197266         2.079226
 H         0.779057         0.537606        -0.722703
 H        -1.848250         0.394484        -1.057925
 H        -2.238932        -1.090378         0.026198
 H        -3.447325         1.642978         0.571739
 H        -1.182087         2.601522         0.157395
 H         0.021600         2.489763         2.789856
 H        -1.385992         3.461765         2.374234
 H        -3.110984         0.065369         2.895152
 H        -0.174690         0.400361         2.749175
 H        -0.754275        -1.327823         2.093104
