19
Iteration:  4208
 O         0.618799         0.321612         0.205664
 C        -0.561885         0.482407         0.766271
 C        -1.884246        -0.030071        -0.051086
 C        -2.473972         0.962149         0.967529
 C        -1.211524         1.860169         0.886166
 C        -0.955584         2.438019         2.281945
 O        -1.900864         1.730683         3.099675
 C        -2.161290         0.433013         2.473527
 C        -0.871980        -0.220639         2.147882
 H         0.839218         1.086992        -0.474069
 H        -1.582887         0.323930        -1.014687
 H        -2.197962        -1.081183         0.004245
 H        -3.505456         1.382874         0.694666
 H        -1.306602         2.462416        -0.037903
 H         0.133353         2.281912         2.471301
 H        -1.124073         3.364184         2.611389
 H        -2.941887        -0.023521         3.116503
 H        -0.212380         0.113879         2.924527
 H        -1.039376        -1.342300         2.167091
