19
Iteration:   789
 O         0.765476         0.360049         0.243702
 C        -0.595543         0.374889         0.712994
 C        -1.937655        -0.016711        -0.048946
 C        -2.617689         1.034591         0.971746
 C        -1.161152         1.831138         0.924473
 C        -1.011666         2.438993         2.232019
 O        -1.812242         1.700733         3.187388
 C        -2.246597         0.531303         2.416728
 C        -0.800552        -0.204397         2.106073
 H         0.944757        -0.670257        -0.030317
 H        -1.870171         0.620034        -0.958874
 H        -2.441475        -0.987885        -0.197360
 H        -3.575418         1.497276         0.785546
 H        -1.116669         2.494228         0.031518
 H        -0.017109         2.498510         2.684321
 H        -1.573889         3.366068         2.096285
 H        -2.893467         0.110829         3.121020
 H        -0.122045        -0.004197         2.949902
 H        -1.024087        -1.261831         1.857500
