19
Iteration:   758
 O         0.676299         0.295246         0.195408
 C        -0.576966         0.422212         0.752555
 C        -1.909568         0.016400        -0.048034
 C        -2.501751         1.002989         0.920018
 C        -1.175724         1.927208         0.882436
 C        -1.031017         2.484529         2.292085
 O        -1.899595         1.722270         3.167268
 C        -2.132249         0.493239         2.430912
 C        -0.824403        -0.260198         2.193356
 H         0.576464        -0.496388        -0.210610
 H        -1.921933         0.315938        -1.054742
 H        -2.303684        -1.042362        -0.138433
 H        -3.562488         1.374288         0.834006
 H        -1.031131         2.589771        -0.024768
 H        -0.006187         2.496365         2.643819
 H        -1.316728         3.673013         2.219087
 H        -2.821948        -0.065364         3.031968
 H        -0.078137        -0.341057         2.980722
 H        -1.033380        -1.305404         1.854628
