19
Iteration:  3474charge 0 multiplicity 1
 O         0.664774         0.248874         0.181777
 C        -0.560421         0.409683         0.702530
 C        -1.841490         0.001377         0.048719
 C        -2.528854         0.895437         1.064116
 C        -1.292349         1.861699         0.888331
 C        -1.164943         2.626879         2.099524
 O        -1.891989         1.743931         3.146408
 C        -2.070478         0.540614         2.434639
 C        -0.713742        -0.232423         2.166853
 H         1.023449        -0.637590         0.629108
 H        -1.909524         0.664221        -0.924603
 H        -2.056952        -1.085947        -0.202223
 H        -3.636374         1.136370         0.943834
 H        -1.286925         2.380333         0.031328
 H        -0.112560         2.754006         2.455143
 H        -1.583758         3.566715         2.043763
 H        -2.838575        -0.116582         2.921370
 H         0.127946         0.070496         2.869787
 H        -0.918207        -1.342219         2.137505
