19
Iteration:  2179charge 0 multiplicity 1
 O         0.576598         0.269111         0.072330
 C        -0.617974         0.454294         0.814106
 C        -1.763166        -0.040439         0.005919
 C        -2.530149         0.960841         1.011922
 C        -1.258124         1.887441         0.889879
 C        -1.114136         2.582783         2.207601
 O        -1.760108         1.726033         3.141906
 C        -2.134720         0.515847         2.423904
 C        -0.843606        -0.259305         2.183216
 H         1.416277         0.177661         0.571499
 H        -1.744870         0.124862        -1.062165
 H        -1.979588        -1.102964         0.261185
 H        -3.657629         1.023309         0.834563
 H        -1.129989         2.478850        -0.098702
 H        -0.019343         2.758565         2.472459
 H        -1.633826         3.622036         2.154229
 H        -2.873241        -0.170203         2.848034
 H        -0.168127        -0.220706         3.071994
 H        -1.027248        -1.317235         2.089718
