19
Iteration:  4336
 O         0.737324         0.360263         0.257387
 C        -0.614036         0.377242         0.708206
 C        -1.978627        -0.023623        -0.017515
 C        -2.567872         1.006266         0.975775
 C        -1.198926         1.842036         0.884463
 C        -1.013679         2.471866         2.305385
 O        -1.880478         1.711655         3.118135
 C        -2.117377         0.502837         2.375719
 C        -0.771499        -0.278873         2.143500
 H         0.824228         0.835196        -0.502808
 H        -2.097253         0.268757        -1.088818
 H        -2.344772        -1.020784        -0.047922
 H        -3.631329         1.414104         0.992916
 H        -1.057047         2.561379         0.153753
 H        -0.080628         2.294024         2.751165
 H        -1.340065         3.563241         2.342968
 H        -2.995310         0.057103         2.942330
 H        -0.022522        -0.039775         2.840664
 H        -0.711776        -1.350281         2.117045
