19
Iteration:  2744
 O         0.683821         0.337974         0.139668
 C        -0.541382         0.338237         0.770260
 C        -1.920990        -0.058416         0.060842
 C        -2.498305         1.021847         0.965136
 C        -1.216204         1.775359         0.949126
 C        -1.190557         2.598459         2.186448
 O        -1.876354         1.785096         3.176666
 C        -2.065860         0.481146         2.466504
 C        -0.746553        -0.232819         2.105634
 H         0.900066        -0.450870        -0.314010
 H        -1.902744         0.193948        -0.999847
 H        -2.138538        -1.173730         0.060652
 H        -3.543725         1.412181         0.717281
 H        -1.137514         2.448402         0.066133
 H        -0.197818         2.857332         2.523596
 H        -1.916659         3.606826         2.026493
 H        -2.782303        -0.082318         2.986291
 H         0.028744         0.059164         2.832539
 H        -0.961243        -1.410480         2.011489
