19
Iteration:  4560charge 0 multiplicity 1
 O         0.713117         0.062236         0.128888
 C        -0.580784         0.375061         0.673246
 C        -1.908251         0.202350        -0.067068
 C        -2.502805         1.010190         1.011184
 C        -1.240064         1.896459         1.005670
 C        -1.217705         2.605996         2.309786
 O        -1.818255         1.648393         3.230434
 C        -2.116070         0.418635         2.392543
 C        -0.790142        -0.209694         2.010192
 H         1.282122         0.573425         0.599524
 H        -1.906928         0.574667        -1.100093
 H        -2.285735        -0.922078        -0.072811
 H        -3.446419         1.478756         0.966357
 H        -0.933063         2.670119         0.263382
 H        -0.183245         2.796231         2.717784
 H        -1.895548         3.643318         2.086228
 H        -2.860919        -0.187642         2.931029
 H        -0.017540         0.202353         2.729518
 H        -0.694873        -1.292612         2.113946
