19
Iteration:   505charge 0 multiplicity 1
 O         0.673753         0.220459         0.208810
 C        -0.569660         0.457243         0.731216
 C        -1.846050         0.103152        -0.070464
 C        -2.542511         0.962436         0.999408
 C        -1.270767         1.924549         0.882966
 C        -1.039778         2.467694         2.182897
 O        -1.790326         1.679065         3.155705
 C        -2.131192         0.490813         2.439024
 C        -0.953875        -0.238505         2.162195
 H         1.356297         0.150987         0.958794
 H        -1.866482         0.581244        -1.139346
 H        -2.073769        -0.933723        -0.275211
 H        -3.557263         1.287194         0.877940
 H        -1.113359         2.550669        -0.004396
 H         0.115704         2.584470         2.479743
 H        -1.488252         3.439731         2.279429
 H        -2.808759        -0.153965         3.032646
 H        -0.170323        -0.097949         2.926635
 H        -1.178122        -1.302171         2.115249
