19
Iteration:  2289
 O         0.665716         0.306894         0.083177
 C        -0.610379         0.387131         0.712306
 C        -1.913329        -0.104063         0.072417
 C        -2.542005         1.014692         1.033726
 C        -1.208318         1.789237         0.907949
 C        -1.044676         2.489008         2.221220
 O        -1.918777         1.767215         3.147103
 C        -2.103050         0.500862         2.395052
 C        -0.769259        -0.163961         2.113516
 H         1.223462         0.446179         0.774867
 H        -1.999890         0.065601        -1.010068
 H        -2.009367        -1.165026         0.151582
 H        -3.579157         1.387642         0.907837
 H        -1.046586         2.584170         0.154137
 H        -0.051851         2.663268         2.593096
 H        -1.501506         3.540289         2.232371
 H        -2.829614        -0.129169         2.906233
 H         0.087591         0.180498         2.810036
 H        -0.851006        -1.205851         2.325624
