19
Iteration:   113charge 0 multiplicity 1
 O         0.670749         0.093932         0.205413
 C        -0.566486         0.479919         0.733081
 C        -1.855482         0.132274        -0.032119
 C        -2.513697         1.005716         1.019775
 C        -1.182093         1.885397         1.020218
 C        -1.054271         2.542632         2.373296
 O        -2.001988         1.750048         3.060459
 C        -2.154868         0.446064         2.396530
 C        -0.721794        -0.216694         2.050409
 H         0.433610        -0.574033        -0.502895
 H        -1.770247         0.519800        -1.117096
 H        -2.172727        -0.882954        -0.084683
 H        -3.453193         1.456189         0.709023
 H        -1.128946         2.587710         0.170124
 H        -0.005692         2.545884         2.771963
 H        -1.412632         3.539435         2.376060
 H        -2.931786        -0.132251         2.981867
 H         0.067222        -0.052147         2.780887
 H        -0.638568        -1.305528         1.944278
