19
Iteration:   650
 O         0.729579         0.313351         0.171828
 C        -0.600468         0.376679         0.722963
 C        -1.891151         0.040112        -0.110797
 C        -2.516469         1.016924         0.947970
 C        -1.218829         1.838460         0.911177
 C        -0.995206         2.543280         2.217077
 O        -1.795029         1.729795         3.309079
 C        -2.250191         0.452346         2.446209
 C        -0.928559        -0.288972         2.061375
 H         1.170357         0.088008         0.926350
 H        -1.855280         0.468870        -1.058748
 H        -2.314391        -1.011252         0.052833
 H        -3.550438         1.476871         0.816765
 H        -0.882689         2.439683         0.009084
 H         0.080360         2.673678         2.295398
 H        -1.469622         3.441775         2.065442
 H        -3.007966        -0.097707         2.986009
 H        -0.199674        -0.006793         2.804661
 H        -1.005922        -1.399611         2.070355
