19
Iteration:   841
 O         0.716964         0.188302         0.065944
 C        -0.589707         0.457442         0.728572
 C        -1.887412         0.063349        -0.049656
 C        -2.499417         1.007051         0.932404
 C        -1.175297         1.839373         0.939728
 C        -1.087425         2.490429         2.251403
 O        -1.895396         1.691625         3.253666
 C        -2.152587         0.521749         2.438189
 C        -0.892016        -0.171689         2.118651
 H         1.483670         0.038136         0.720821
 H        -2.125152         0.503271        -1.130449
 H        -2.077750        -0.986721         0.098048
 H        -3.446894         1.402729         0.877439
 H        -0.977445         2.251163        -0.018624
 H        -0.006309         2.497799         2.707155
 H        -1.426760         3.479267         2.305351
 H        -2.906349         0.045232         3.080319
 H        -0.104186        -0.025773         2.906840
 H        -1.049026        -1.268016         2.035483
