19
Iteration:  1825charge 0 multiplicity 1
 O         0.767422         0.241419         0.166333
 C        -0.525636         0.382250         0.631688
 C        -1.988187         0.037598        -0.020616
 C        -2.493075         0.953785         1.079141
 C        -1.252626         1.817674         0.933778
 C        -1.132499         2.600485         2.243146
 O        -1.946572         1.739791         3.131650
 C        -2.117408         0.463909         2.463282
 C        -0.686838        -0.179394         2.111231
 H         0.925059        -0.715872         0.097347
 H        -2.195095         0.580207        -1.049492
 H        -2.381236        -1.028777         0.066395
 H        -3.451039         1.541878         1.144637
 H        -1.050352         2.542894         0.122422
 H        -0.059826         2.645032         2.586067
 H        -1.615732         3.509392         2.119181
 H        -3.068184        -0.045446         2.842572
 H        -0.015445         0.145787         2.840773
 H        -0.756684        -1.279992         2.174395
