19
Iteration:  4980charge 0 multiplicity 1
 O         0.715500         0.271765         0.169156
 C        -0.611427         0.335816         0.758865
 C        -1.846333        -0.048535        -0.008183
 C        -2.561231         0.949875         0.953839
 C        -1.283179         1.820730         0.896723
 C        -1.257451         2.625409         2.168566
 O        -1.648106         1.742779         3.152873
 C        -2.129440         0.572433         2.467340
 C        -0.821731        -0.256443         2.135913
 H         1.297935         0.027096         0.841692
 H        -1.719604         0.498787        -1.054260
 H        -2.316333        -1.179577        -0.015177
 H        -3.660901         1.151545         0.797283
 H        -1.252837         2.418759         0.018862
 H        -0.308268         2.989702         2.640282
 H        -1.883770         3.465992         1.998291
 H        -2.927821         0.205518         3.082391
 H        -0.157663         0.043023         2.984245
 H        -0.904888        -1.337057         2.086239
