19
Iteration:  3856
 O         0.764143         0.226529         0.176836
 C        -0.570074         0.416586         0.676096
 C        -1.888938         0.019570        -0.031544
 C        -2.527325         0.990611         0.980460
 C        -1.211224         1.894106         0.907111
 C        -1.132497         2.571632         2.271889
 O        -1.845895         1.668885         3.161864
 C        -2.111468         0.519669         2.489892
 C        -0.854693        -0.212902         2.080585
 H         0.902648        -0.729482         0.336394
 H        -2.025904         0.284082        -1.106634
 H        -2.246810        -0.955410         0.105892
 H        -3.491651         1.483185         0.859797
 H        -1.222841         2.580823         0.112602
 H        -0.162218         2.834715         2.591138
 H        -1.772403         3.535671         2.273483
 H        -2.918350        -0.007267         3.041588
 H        -0.100212         0.055409         2.861374
 H        -0.985826        -1.289999         2.022604
