19
Iteration:  1593charge 0 multiplicity 1
 O         0.779523         0.432142         0.088884
 C        -0.621449         0.372994         0.692852
 C        -1.928956        -0.081944        -0.039729
 C        -2.545808         1.009133         0.963107
 C        -1.215707         1.771588         0.921042
 C        -0.981452         2.535830         2.297228
 O        -1.877702         1.713054         3.218940
 C        -2.216681         0.547933         2.474648
 C        -0.869565        -0.284043         2.078736
 H         1.298926        -0.146709         0.751564
 H        -1.780606         0.321473        -1.112612
 H        -2.436102        -0.973769         0.160876
 H        -3.427083         1.521907         0.746484
 H        -0.967342         2.376268         0.045405
 H         0.052140         2.535940         2.656667
 H        -1.475996         3.465146         2.190696
 H        -2.880237        -0.049614         3.008428
 H        -0.197725         0.029425         2.946786
 H        -0.954980        -1.347366         2.034449
