19
Iteration:  4067charge 0 multiplicity 1
 O         0.669095         0.246374         0.199425
 C        -0.591121         0.445283         0.712931
 C        -1.809590        -0.033871         0.027420
 C        -2.487685         1.011478         0.989348
 C        -1.257377         1.858065         0.872516
 C        -1.020198         2.403102         2.294069
 O        -1.889994         1.737433         3.146147
 C        -2.214583         0.513531         2.412079
 C        -0.816251        -0.177852         2.120744
 H         0.849502         1.036719        -0.338628
 H        -1.858522         0.420445        -0.931884
 H        -2.109409        -1.086517         0.034919
 H        -3.550561         1.253063         0.693372
 H        -1.383134         2.542575        -0.056588
 H         0.001086         2.165069         2.612632
 H        -1.032460         3.566652         2.513211
 H        -2.901151        -0.227420         2.837555
 H        -0.102731         0.168029         2.850657
 H        -0.912080        -1.310621         2.123102
