19
Iteration:  3602charge 0 multiplicity 1
 O         0.713615         0.229328         0.118120
 C        -0.523920         0.453096         0.799366
 C        -1.846250        -0.036104         0.107342
 C        -2.596130         0.932450         1.004468
 C        -1.280351         1.874409         0.838094
 C        -1.191625         2.602771         2.143561
 O        -1.769814         1.671701         3.165655
 C        -2.131897         0.515746         2.427211
 C        -0.824429        -0.157180         2.162829
 H         1.204957        -0.487939         0.408919
 H        -1.914955         0.405646        -0.893990
 H        -2.189303        -1.027847         0.034028
 H        -3.523766         1.427432         0.612212
 H        -1.171335         2.409536        -0.169221
 H        -0.132019         2.717739         2.416379
 H        -1.774055         3.619400         2.208288
 H        -2.804630        -0.133365         3.005796
 H        -0.201254         0.164109         3.022577
 H        -0.750466        -1.224290         2.033622
