19
Iteration:   112charge 0 multiplicity 1
 O         0.670305         0.101967         0.206737
 C        -0.569768         0.469476         0.730229
 C        -1.852456         0.138584        -0.034750
 C        -2.512446         1.009479         1.027169
 C        -1.178695         1.878611         1.028479
 C        -1.058214         2.539241         2.370133
 O        -2.001351         1.753647         3.057675
 C        -2.162032         0.445788         2.392272
 C        -0.717468        -0.226018         2.050024
 H         0.444481        -0.605321        -0.530282
 H        -1.788539         0.517136        -1.098811
 H        -2.161021        -0.858548        -0.065382
 H        -3.439407         1.455106         0.741190
 H        -1.116838         2.558118         0.182457
 H        -0.024849         2.563407         2.750706
 H        -1.404169         3.589503         2.349555
 H        -2.935757        -0.133548         2.970845
 H         0.063091        -0.037831         2.764877
 H        -0.624518        -1.290526         1.959346
