19
Iteration:  3458charge 0 multiplicity 1
 O         0.635956         0.218693         0.157077
 C        -0.581723         0.466560         0.804232
 C        -1.793961        -0.040643        -0.060895
 C        -2.500659         0.920809         0.991715
 C        -1.288330         1.820558         0.836359
 C        -1.219944         2.603756         2.211056
 O        -1.792736         1.773553         3.146268
 C        -2.102161         0.466094         2.535419
 C        -0.809376        -0.172047         2.121349
 H         1.173118        -0.440686         0.602056
 H        -1.768030         0.192911        -1.064295
 H        -1.976673        -1.080067         0.092469
 H        -3.411592         1.458575         0.893458
 H        -1.197603         2.456227        -0.193048
 H        -0.215120         2.914717         2.514705
 H        -1.887455         3.558004         2.067451
 H        -2.720241        -0.031831         3.263789
 H        -0.026747         0.048103         2.803075
 H        -0.803038        -1.222306         1.908282
