19
Iteration:  1333charge 0 multiplicity 1
 O         0.699431         0.162949        -0.024756
 C        -0.541840         0.416888         0.745424
 C        -1.789791         0.024551        -0.014351
 C        -2.573073         1.003675         1.031874
 C        -1.229014         1.874507         0.961887
 C        -1.043145         2.526067         2.319899
 O        -1.970526         1.719918         3.229441
 C        -2.273953         0.540245         2.377641
 C        -0.758305        -0.191356         2.106797
 H         1.392804         0.246264         0.677697
 H        -1.777061         0.377081        -1.128344
 H        -2.102996        -1.039816        -0.011278
 H        -3.536162         1.489721         0.823078
 H        -1.218231         2.376690        -0.044767
 H         0.042554         2.243586         2.580543
 H        -1.153548         3.557939         2.483676
 H        -2.897656        -0.107782         2.939231
 H        -0.000331         0.150604         2.811984
 H        -0.805302        -1.247448         2.250498
