19
Iteration:    10charge 0 multiplicity 1
 O         0.721142         0.216476         0.189851
 C        -0.599812         0.307606         0.656363
 C        -1.859718         0.081291        -0.089316
 C        -2.537879         1.027010         1.032245
 C        -1.210096         1.815996         0.906654
 C        -0.975759         2.530259         2.321004
 O        -1.898136         1.677186         3.206196
 C        -2.179997         0.523517         2.433396
 C        -0.893414        -0.209116         2.043474
 H         1.292106         0.219116         0.990327
 H        -1.803005         0.652702        -0.936593
 H        -2.369383        -0.882255        -0.265577
 H        -3.419683         1.655763         0.702442
 H        -1.146284         2.586362         0.102076
 H        -0.020797         2.517396         2.760857
 H        -1.389430         3.648009         2.260078
 H        -3.040636         0.020793         2.843914
 H        -0.123880         0.122311         2.698176
 H        -0.961970        -1.258455         1.874356
