19
Iteration:   634
 O         0.658606         0.285847         0.202301
 C        -0.593376         0.371374         0.707005
 C        -1.973299         0.018700        -0.072979
 C        -2.526787         1.056135         1.000227
 C        -1.118885         1.823488         0.921544
 C        -1.062034         2.538523         2.283147
 O        -1.798353         1.648326         3.119126
 C        -2.140681         0.535057         2.392891
 C        -0.866505        -0.276515         2.145519
 H         1.316711         0.275959         0.859532
 H        -2.019434         0.515713        -1.114800
 H        -2.228457        -1.011619        -0.158363
 H        -3.413378         1.620832         0.799295
 H        -1.154374         2.373972         0.003979
 H        -0.113098         2.696003         2.864355
 H        -1.624188         3.626627         2.262551
 H        -3.044528         0.099497         2.897395
 H        -0.074066        -0.083966         2.918603
 H        -0.922754        -1.357549         2.005753
