19
Iteration:  2461
 O         0.656866         0.328770         0.051668
 C        -0.528620         0.364274         0.724443
 C        -1.917575        -0.082233         0.005306
 C        -2.457168         0.945034         0.979218
 C        -1.206887         1.842375         0.918541
 C        -1.190496         2.627669         2.184872
 O        -1.813599         1.781326         3.243058
 C        -2.148496         0.509574         2.464775
 C        -0.803886        -0.299897         2.126998
 H         1.282651         0.147220         0.788157
 H        -1.924848         0.231569        -1.003756
 H        -2.126348        -1.133562         0.286134
 H        -3.579186         1.191432         0.715934
 H        -0.991838         2.442388        -0.057282
 H        -0.179045         3.088568         2.481854
 H        -1.872251         3.396738         2.030477
 H        -2.819143         0.038110         3.162607
 H        -0.130908        -0.124023         2.878115
 H        -1.005909        -1.409276         2.160534
