19
Iteration:  4896
 O         0.605717         0.327943        -0.044576
 C        -0.556203         0.390459         0.818175
 C        -1.840792        -0.070905         0.085508
 C        -2.528530         0.967922         0.963650
 C        -1.185410         1.810674         0.905553
 C        -0.990813         2.481443         2.302458
 O        -2.007224         1.743678         3.103512
 C        -2.179569         0.501613         2.403809
 C        -0.734958        -0.088047         2.219010
 H         1.218204        -0.396921         0.430100
 H        -1.786288         0.363764        -0.862465
 H        -2.033849        -1.109513         0.112832
 H        -3.569116         1.384564         0.791991
 H        -0.906707         2.427478        -0.037746
 H        -0.012181         2.265560         2.777157
 H        -1.144191         3.643559         2.187359
 H        -2.980526        -0.163176         2.900531
 H        -0.191356         0.201325         3.173957
 H        -0.877805        -1.165869         2.208395
