19
Iteration:  3550charge 0 multiplicity 1
 O         0.736928         0.373298         0.098699
 C        -0.536783         0.379778         0.729828
 C        -1.840873        -0.071191        -0.011875
 C        -2.520172         0.917216         1.069557
 C        -1.264000         1.795309         0.846135
 C        -1.052520         2.497265         2.156062
 O        -1.907972         1.805055         3.160025
 C        -2.185924         0.562710         2.500256
 C        -0.828374        -0.207774         2.236560
 H         1.118667        -0.453493         0.030599
 H        -2.044594         0.273085        -1.095976
 H        -2.111211        -1.154185        -0.057180
 H        -3.586536         1.283599         0.869266
 H        -1.335665         2.366086        -0.011060
 H         0.045250         2.629083         2.441620
 H        -1.516478         3.423158         2.130739
 H        -2.998872        -0.010444         3.030991
 H        -0.058765         0.102255         2.982113
 H        -0.923179        -1.274472         2.234955
