19
Iteration:  3847charge 0 multiplicity 1
 O         0.753079         0.220215         0.181021
 C        -0.538191         0.404043         0.719689
 C        -1.940802        -0.005170        -0.015867
 C        -2.531937         0.988923         0.978025
 C        -1.278857         1.943706         0.918211
 C        -1.155064         2.600759         2.321796
 O        -1.801637         1.715575         3.144159
 C        -2.176740         0.506429         2.376181
 C        -0.785395        -0.245486         2.116667
 H         0.882172        -0.719694        -0.006746
 H        -1.868983         0.213608        -1.087326
 H        -2.175593        -1.102271         0.073915
 H        -3.514634         1.392335         0.783189
 H        -0.973794         2.623719         0.117796
 H        -0.133672         2.617400         2.651904
 H        -1.599296         3.634179         2.383571
 H        -2.859823        -0.068711         3.004143
 H        -0.054156        -0.047044         2.878152
 H        -0.932771        -1.320367         2.035070
