19
Iteration:  1050
 O         0.718874         0.281269         0.130773
 C        -0.563020         0.419821         0.703073
 C        -1.894568        -0.002740        -0.056941
 C        -2.519813         1.008763         1.024990
 C        -1.214619         1.905248         0.928578
 C        -1.020357         2.497223         2.301618
 O        -1.927611         1.680267         3.121966
 C        -2.184512         0.515205         2.440333
 C        -0.809130        -0.202510         2.125574
 H         1.001103        -0.702159         0.395213
 H        -1.917933         0.391310        -1.090189
 H        -2.304038        -1.008311        -0.106666
 H        -3.518524         1.574258         0.936067
 H        -1.319190         2.565190        -0.011341
 H        -0.047689         2.257373         2.686252
 H        -1.171284         3.670017         2.500050
 H        -2.948483        -0.095793         2.929833
 H        -0.058466         0.126696         2.868011
 H        -0.798222        -1.342177         2.250455
