19
Iteration:  4139
 O         0.716717         0.130092         0.193520
 C        -0.526888         0.440485         0.792405
 C        -1.803346         0.126554         0.035922
 C        -2.553847         0.954286         0.933583
 C        -1.296369         1.900375         0.924057
 C        -1.206194         2.591190         2.286896
 O        -1.778489         1.667344         3.137420
 C        -2.143016         0.484154         2.408535
 C        -0.827845        -0.257045         2.111078
 H         0.520679         0.000597        -0.707433
 H        -1.657305         0.727275        -0.937979
 H        -2.154268        -0.909013        -0.061381
 H        -3.490848         1.478938         0.826930
 H        -1.165791         2.462983         0.070149
 H        -0.166404         2.876574         2.539662
 H        -1.668309         3.522496         2.289797
 H        -2.882101        -0.030592         3.062083
 H        -0.135180         0.022700         2.904374
 H        -0.810896        -1.290313         1.829264
