19
Iteration:  3321charge 0 multiplicity 1
 O         0.691179         0.212846         0.049317
 C        -0.528214         0.430864         0.789804
 C        -1.873877         0.017901         0.079783
 C        -2.550015         0.883032         1.008258
 C        -1.206817         1.829120         0.860221
 C        -1.235167         2.580647         2.183637
 O        -1.802389         1.756714         3.195066
 C        -2.122747         0.556807         2.441783
 C        -0.835423        -0.186649         2.153954
 H         1.478747        -0.272223         0.589946
 H        -1.876272         0.519268        -0.954568
 H        -2.080381        -1.064443        -0.100519
 H        -3.564750         1.193513         0.707972
 H        -1.133337         2.284551        -0.007219
 H        -0.192655         2.757741         2.469896
 H        -1.880482         3.516155         2.038917
 H        -2.709656        -0.073174         3.085191
 H        -0.194905         0.103171         3.077763
 H        -0.734479        -1.306512         1.984575
