19
Iteration:  4324charge 0 multiplicity 1
 O         0.709345         0.263150         0.240255
 C        -0.595232         0.415275         0.736745
 C        -1.974465        -0.015273        -0.041897
 C        -2.444600         1.030221         1.003664
 C        -1.240120         1.874812         0.979317
 C        -1.053977         2.532877         2.276965
 O        -1.905390         1.684151         3.112705
 C        -2.193569         0.514834         2.423463
 C        -0.707837        -0.334956         2.067545
 H         0.835676         1.038642        -0.474898
 H        -2.030642         0.386794        -1.047441
 H        -2.204801        -0.990901         0.206075
 H        -3.426353         1.538690         0.795457
 H        -1.122538         2.344297         0.020454
 H        -0.040454         2.725268         2.504006
 H        -1.477607         3.563931         2.276951
 H        -2.917874        -0.180321         2.967367
 H         0.024073         0.092518         2.726732
 H        -0.878605        -1.388268         2.047417
