19
Iteration:  4222charge 0 multiplicity 1
 O         0.685516         0.311237         0.191502
 C        -0.629599         0.403684         0.755620
 C        -1.801194        -0.020869        -0.024292
 C        -2.579617         0.955700         0.913513
 C        -1.266472         1.823656         0.942418
 C        -0.972109         2.411092         2.306845
 O        -1.896231         1.728911         3.174087
 C        -2.192513         0.583267         2.405160
 C        -0.793516        -0.193613         2.139305
 H         0.621139         0.886870        -0.585143
 H        -1.992685         0.371768        -0.961538
 H        -2.040099        -1.088488        -0.019149
 H        -3.562750         1.342173         0.762614
 H        -0.920371         2.566224         0.092277
 H        -0.003478         2.145536         2.699336
 H        -1.112358         3.513899         2.220136
 H        -2.900066        -0.016209         2.924007
 H         0.097455        -0.132404         2.849593
 H        -0.892529        -1.278633         1.925686
