19
Iteration:  2385charge 0 multiplicity 1
 O         0.720290         0.228108        -0.010165
 C        -0.540511         0.425456         0.723928
 C        -1.911238        -0.042408         0.066973
 C        -2.486088         0.931703         1.034402
 C        -1.214271         1.818899         0.908194
 C        -1.132411         2.560729         2.211511
 O        -1.958129         1.774751         3.169934
 C        -2.146530         0.505768         2.482163
 C        -0.753723        -0.191970         2.172371
 H         1.472380         0.510654         0.596549
 H        -2.087313         0.299535        -0.950419
 H        -2.208441        -1.074225         0.099323
 H        -3.549481         1.361634         0.791980
 H        -1.290370         2.423308        -0.119875
 H        -0.104201         2.588216         2.649145
 H        -1.439543         3.597170         2.105270
 H        -2.891460        -0.083799         3.035628
 H         0.056989         0.035389         2.817895
 H        -0.832499        -1.294546         2.231229
