19
Iteration:  1683charge 0 multiplicity 1
 O         0.656451         0.230690         0.190024
 C        -0.521797         0.363052         0.731547
 C        -1.928178        -0.026027        -0.000930
 C        -2.505133         0.998281         1.003956
 C        -1.198200         1.900834         0.969268
 C        -1.160474         2.595297         2.298195
 O        -1.896321         1.690486         3.114942
 C        -2.064385         0.533662         2.357526
 C        -0.746682        -0.267042         2.134011
 H         0.688936         0.418650        -0.825219
 H        -1.867313         0.367170        -1.032708
 H        -2.437716        -0.964987         0.144135
 H        -3.514966         1.468949         0.916493
 H        -0.838322         2.549712         0.144539
 H        -0.173296         2.589539         2.768053
 H        -1.610484         3.612696         2.237256
 H        -2.887251        -0.017566         2.933135
 H         0.075994        -0.065432         2.801650
 H        -0.991352        -1.369859         2.127368
