19
Iteration:  4647
 O         0.720404         0.411980         0.332176
 C        -0.608423         0.478095         0.709051
 C        -1.897325        -0.010580        -0.032879
 C        -2.650480         0.966366         0.993392
 C        -1.278138         1.843708         0.893480
 C        -0.854297         2.413263         2.296219
 O        -1.874958         1.707404         3.116184
 C        -2.186757         0.479310         2.429892
 C        -0.828284        -0.266785         2.024890
 H         0.755874         0.113543        -0.605431
 H        -1.925845         0.380800        -1.084021
 H        -2.173660        -1.200445        -0.037837
 H        -3.575634         1.533672         0.938334
 H        -1.210605         2.614043         0.049812
 H         0.130288         2.063551         2.685383
 H        -1.012247         3.560697         2.425094
 H        -2.992826        -0.013614         3.058825
 H        -0.033390         0.047960         2.745191
 H        -0.740702        -1.337724         1.902496
