19
Iteration:  2937charge 0 multiplicity 1
 O         0.692658         0.337913         0.084049
 C        -0.559075         0.478527         0.705667
 C        -1.825788        -0.133606        -0.003666
 C        -2.548625         0.947263         0.993763
 C        -1.319103         1.862978         0.881212
 C        -1.046134         2.534665         2.216721
 O        -1.841802         1.733044         3.210964
 C        -2.176295         0.532680         2.433026
 C        -0.811581        -0.228948         2.173043
 H         1.251337        -0.371333         0.626214
 H        -2.059160         0.002163        -1.021932
 H        -2.104885        -1.149940         0.233159
 H        -3.558735         1.465263         0.874282
 H        -1.190112         2.501648         0.040126
 H         0.017735         2.474913         2.544011
 H        -1.277331         3.610797         2.149181
 H        -3.102279        -0.030539         2.871001
 H        -0.176138         0.202546         3.054812
 H        -0.868864        -1.248957         2.119645
