19
Iteration:   893charge 0 multiplicity 1
 O         0.667931         0.121737         0.055029
 C        -0.559502         0.422795         0.700623
 C        -1.829428         0.033688         0.019138
 C        -2.434400         1.061952         1.020009
 C        -1.177911         1.925946         0.870763
 C        -1.065736         2.453142         2.292806
 O        -1.948007         1.697419         3.205576
 C        -2.181473         0.509230         2.430038
 C        -0.874126        -0.212324         2.119672
 H         1.302206         0.694992         0.371218
 H        -1.766982         0.432853        -0.996997
 H        -2.000416        -0.995632        -0.068385
 H        -3.318324         1.633441         1.047092
 H        -1.378953         2.593128         0.080701
 H        -0.156518         2.533838         2.741027
 H        -1.478237         3.524765         2.356707
 H        -3.038196        -0.004115         2.963455
 H        -0.177387        -0.087474         2.956012
 H        -0.931830        -1.265894         1.950920
