19
Iteration:   540
 O         0.675741         0.251096         0.077930
 C        -0.585510         0.400774         0.744289
 C        -1.882424         0.000400         0.021715
 C        -2.536865         1.047097         0.949952
 C        -1.148687         1.860541         0.946615
 C        -1.031095         2.529323         2.293531
 O        -1.919391         1.715309         3.187826
 C        -2.174698         0.498159         2.371302
 C        -0.861889        -0.250731         2.074600
 H         1.455221         0.077031         0.751828
 H        -1.875515         0.304930        -1.020477
 H        -2.124397        -1.082312         0.219262
 H        -3.534010         1.428735         0.906481
 H        -0.898864         2.603163         0.185385
 H         0.085815         2.627360         2.749421
 H        -1.418529         3.503219         2.238430
 H        -2.788687        -0.113945         2.950626
 H        -0.171851        -0.005057         2.868723
 H        -1.077193        -1.323315         2.078547
