19
Iteration:  4502
 O         0.682820         0.509317         0.210344
 C        -0.621903         0.414245         0.696517
 C        -1.918532        -0.020313        -0.032644
 C        -2.524265         0.949133         0.980734
 C        -1.224123         1.815138         0.874225
 C        -0.898983         2.418417         2.306753
 O        -1.899378         1.668662         3.128994
 C        -2.188473         0.514124         2.443168
 C        -0.844983        -0.228008         2.156378
 H         0.908980        -0.368417        -0.357126
 H        -1.956051         0.349700        -1.099202
 H        -2.117474        -1.107567         0.053790
 H        -3.443847         1.552834         0.821120
 H        -1.043987         2.467566         0.031278
 H         0.054111         2.212931         2.866660
 H        -1.024628         3.597069         2.350063
 H        -2.995908         0.013618         2.949602
 H        -0.072217        -0.146271         2.896345
 H        -1.085905        -1.254805         1.972135
