19
Iteration:  1467
 O         0.721724         0.237475         0.122049
 C        -0.602237         0.473774         0.632937
 C        -1.925888         0.011620        -0.092620
 C        -2.512162         1.003587         0.947227
 C        -1.211580         1.810084         0.921424
 C        -1.072259         2.486849         2.347201
 O        -1.916684         1.745621         3.216039
 C        -2.160316         0.510386         2.479495
 C        -0.799868        -0.209286         2.101994
 H         1.310156         0.123181         0.903483
 H        -2.067419         0.270948        -1.087138
 H        -1.983642        -1.149269        -0.091918
 H        -3.549880         1.312976         0.994956
 H        -1.116078         2.462561         0.040754
 H         0.037422         2.421329         2.554802
 H        -1.282526         3.500305         2.421512
 H        -3.002584        -0.080284         2.938765
 H        -0.151474         0.166062         2.808271
 H        -0.562458        -1.290215         2.063349
