19
Iteration:  3330
 O         0.644767         0.228668         0.045886
 C        -0.545211         0.419229         0.772931
 C        -1.842366        -0.028042         0.029977
 C        -2.540825         0.979928         0.961785
 C        -1.238236         1.854609         0.833181
 C        -1.187532         2.619315         2.176686
 O        -1.848779         1.712736         3.197309
 C        -2.125846         0.517843         2.470912
 C        -0.729524        -0.233925         2.218913
 H         1.391923        -0.177564         0.681516
 H        -1.854320         0.263915        -1.050977
 H        -2.253900        -1.078560         0.214608
 H        -3.585166         1.209682         0.844872
 H        -1.017524         2.490080         0.019714
 H        -0.154050         2.952036         2.497120
 H        -1.792274         3.502480         2.079188
 H        -2.925956         0.017856         2.962644
 H        -0.001986         0.046094         3.059367
 H        -0.922495        -1.326422         2.234968
