19
Iteration:  3508charge 0 multiplicity 1
 O         0.705588         0.402893         0.151328
 C        -0.582696         0.388637         0.645187
 C        -1.903182        -0.154772         0.098228
 C        -2.486242         0.954986         0.988824
 C        -1.215380         1.785339         0.851951
 C        -1.041825         2.488477         2.183356
 O        -1.959585         1.748274         3.185577
 C        -2.161758         0.584885         2.435363
 C        -0.779560        -0.126621         2.163395
 H         1.109458        -0.559170         0.226202
 H        -2.195965         0.028969        -0.996061
 H        -2.143530        -1.236262         0.335616
 H        -3.443797         1.500384         0.850919
 H        -1.109034         2.470157         0.097228
 H        -0.048690         2.414401         2.643500
 H        -1.327133         3.473793         1.999908
 H        -2.918398        -0.056974         2.966306
 H         0.037536         0.268683         2.829852
 H        -0.746290        -1.255186         2.270792
