19
Iteration:  3658charge 0 multiplicity 1
 O         0.723092         0.196040         0.123535
 C        -0.599486         0.467976         0.708546
 C        -1.865877        -0.069257         0.062641
 C        -2.626878         0.961956         1.073008
 C        -1.244473         1.822786         0.913268
 C        -1.056852         2.445145         2.234134
 O        -1.913381         1.795600         3.081128
 C        -2.140402         0.510966         2.428428
 C        -0.751319        -0.168540         2.155246
 H         1.207197         1.007985         0.209528
 H        -1.839763         0.170646        -1.035275
 H        -2.133482        -1.030292         0.259632
 H        -3.654698         1.461592         0.831804
 H        -1.195747         2.453385         0.070212
 H        -0.051487         2.478167         2.667677
 H        -1.322476         3.567257         2.093386
 H        -2.981949        -0.069014         2.900395
 H         0.124819         0.130309         2.815540
 H        -0.583392        -1.186023         2.020448
