19
Iteration:  2387
 O         0.718655         0.223089        -0.007496
 C        -0.535653         0.410022         0.715016
 C        -1.873811        -0.043256         0.048252
 C        -2.511210         0.929730         1.040585
 C        -1.232951         1.818523         0.906278
 C        -1.107596         2.542748         2.204297
 O        -1.965703         1.786909         3.177445
 C        -2.127754         0.498000         2.492826
 C        -0.772509        -0.180056         2.164040
 H         1.354777         0.502110         0.580142
 H        -2.132829         0.365909        -0.978605
 H        -2.188355        -1.038007         0.143184
 H        -3.548816         1.297889         0.788979
 H        -1.258853         2.506913        -0.057238
 H        -0.139384         2.575875         2.653896
 H        -1.463206         3.638732         2.147737
 H        -2.865602        -0.066410         3.031629
 H         0.071692         0.099621         2.889691
 H        -0.834713        -1.245776         2.232356
