19
Iteration:  3147charge 0 multiplicity 1
 O         0.735641         0.305986         0.082218
 C        -0.565141         0.389083         0.754042
 C        -1.812639         0.014444         0.032767
 C        -2.545412         0.971336         1.057517
 C        -1.252266         1.807629         0.897258
 C        -1.148670         2.554247         2.174426
 O        -1.875744         1.762581         3.111736
 C        -2.113563         0.492924         2.514875
 C        -0.836988        -0.265404         2.124958
 H         1.279554        -0.018415         0.726014
 H        -2.049667         0.412222        -0.947056
 H        -2.038165        -1.012170         0.087610
 H        -3.598323         1.238860         0.980658
 H        -1.199045         2.342379        -0.118697
 H        -0.119087         2.749317         2.472360
 H        -1.594389         3.571297         2.021202
 H        -2.793754        -0.084459         3.086314
 H        -0.180624        -0.061987         2.967930
 H        -1.060503        -1.293413         1.958478
