19
Iteration:  1111charge 0 multiplicity 1
 O         0.657268         0.289919         0.123484
 C        -0.516697         0.475039         0.800149
 C        -1.826064         0.032859         0.013619
 C        -2.622480         1.045225         0.963005
 C        -1.180759         1.849488         0.870620
 C        -1.133144         2.551104         2.243580
 O        -1.748827         1.673184         3.229038
 C        -2.190007         0.480921         2.357907
 C        -0.874668        -0.303086         2.080884
 H         1.365601        -0.224532         0.738932
 H        -1.658778         0.429107        -1.064582
 H        -2.164273        -1.037887         0.077231
 H        -3.586013         1.477754         0.981811
 H        -1.080951         2.508036         0.050954
 H        -0.100665         2.630895         2.693135
 H        -1.563123         3.430778         2.082876
 H        -2.910345        -0.127079         2.992487
 H        -0.323851        -0.305166         3.036125
 H        -1.278286        -1.257661         1.822806
