19
Iteration:  4837
 O         0.733787         0.184631         0.324069
 C        -0.593179         0.400540         0.726483
 C        -1.911037         0.077678        -0.097059
 C        -2.504714         0.990603         1.027149
 C        -1.280980         1.898763         0.928669
 C        -1.200674         2.601805         2.192511
 O        -1.717326         1.703440         3.128783
 C        -2.131026         0.453880         2.458916
 C        -0.815172        -0.270813         2.126315
 H         0.600318         0.107154        -0.576683
 H        -1.953067         0.513141        -1.176377
 H        -2.159649        -1.068247        -0.286047
 H        -3.501760         1.383493         0.850857
 H        -1.162453         2.512188         0.104552
 H        -0.235459         2.900284         2.557454
 H        -1.761559         3.508723         1.995277
 H        -2.857736         0.028874         3.077219
 H        -0.077925        -0.048101         2.876398
 H        -0.798269        -1.371357         2.000701
