19
Iteration:  2310
 O         0.677729         0.192687         0.184195
 C        -0.583733         0.420203         0.709547
 C        -1.924770         0.043556        -0.024910
 C        -2.514599         0.850741         1.038201
 C        -1.315447         1.861345         0.855635
 C        -1.105316         2.593963         2.206028
 O        -1.882865         1.777029         3.120687
 C        -2.074612         0.490906         2.529472
 C        -0.726421        -0.206693         2.083177
 H         1.412145         0.383968         0.918326
 H        -1.970207         0.300200        -1.069816
 H        -2.231918        -0.951988        -0.059742
 H        -3.581678         1.274268         0.986782
 H        -1.371575         2.452210        -0.157306
 H        -0.063806         2.594379         2.381920
 H        -1.430875         3.698557         2.489305
 H        -2.813714        -0.048105         3.129868
 H         0.124851        -0.064249         2.824478
 H        -0.749809        -1.296110         1.921215
