19
Iteration:  1967
 O         0.646431         0.308969         0.017803
 C        -0.529265         0.375730         0.727427
 C        -1.920223        -0.066285         0.053256
 C        -2.535411         0.950614         0.910787
 C        -1.184200         1.789524         0.983388
 C        -1.120968         2.595744         2.270239
 O        -1.866905         1.769812         3.197914
 C        -2.153689         0.564373         2.413138
 C        -0.760079        -0.228021         2.165564
 H         1.150949        -0.327018         0.411131
 H        -1.945705         0.156305        -1.059376
 H        -2.062828        -1.165109         0.211810
 H        -3.512988         1.428819         0.823166
 H        -0.961665         2.440206         0.164086
 H        -0.141950         2.825629         2.665905
 H        -1.792441         3.489901         2.082999
 H        -2.869732        -0.089947         2.956152
 H         0.033061         0.058347         2.792152
 H        -0.819139        -1.343227         2.223202
