19
Iteration:  3645
 O         0.728324         0.250255         0.068424
 C        -0.518317         0.384286         0.776085
 C        -1.955455        -0.010487         0.108066
 C        -2.516428         0.960833         1.020290
 C        -1.255706         1.801480         0.869455
 C        -1.054582         2.534621         2.198991
 O        -1.979929         1.771114         3.079493
 C        -2.120529         0.508032         2.460412
 C        -0.738432        -0.211866         2.145584
 H         1.376523         0.850126         0.568117
 H        -2.063362         0.304372        -0.935787
 H        -2.226359        -1.039832         0.117008
 H        -3.567867         1.308768         1.022835
 H        -1.159305         2.440231        -0.101896
 H        -0.052776         2.441721         2.514813
 H        -1.431723         3.630507         2.262766
 H        -2.740625        -0.062147         3.153930
 H        -0.020251        -0.030770         2.984697
 H        -1.071435        -1.281619         2.104562
