19
Iteration:   666charge 0 multiplicity 1
 O         0.718184         0.274668         0.176793
 C        -0.579652         0.421301         0.742458
 C        -1.824599         0.048850        -0.011303
 C        -2.588986         1.006764         0.977863
 C        -1.303233         1.834556         0.908085
 C        -1.056826         2.484783         2.271175
 O        -1.771230         1.696057         3.145251
 C        -2.168583         0.593658         2.412469
 C        -0.913183        -0.286379         2.082901
 H         1.418238        -0.173077         0.737135
 H        -1.863372         0.530472        -1.060706
 H        -2.040962        -0.976013        -0.180757
 H        -3.558385         1.413744         0.734432
 H        -1.272443         2.497620         0.061520
 H         0.024384         2.351852         2.675352
 H        -1.264481         3.603100         2.473403
 H        -2.907966         0.043925         3.070629
 H        -0.148272        -0.243145         2.902117
 H        -1.211497        -1.311367         1.840370
