19
Iteration:  3686
 O         0.736033         0.199001         0.200570
 C        -0.580264         0.386468         0.720597
 C        -1.877117        -0.057632        -0.012317
 C        -2.543936         0.918225         0.933907
 C        -1.311390         1.854601         0.849389
 C        -1.103746         2.542199         2.261966
 O        -1.860644         1.724629         3.212646
 C        -2.088231         0.584178         2.437389
 C        -0.782923        -0.109283         2.211873
 H         0.644016         0.664100        -0.706378
 H        -1.864774         0.253496        -1.060063
 H        -2.371162        -1.147483         0.006080
 H        -3.544214         1.168481         0.710445
 H        -1.155394         2.533121        -0.128241
 H         0.001539         2.424117         2.554859
 H        -1.375764         3.592506         2.392330
 H        -2.826611        -0.062191         2.864936
 H         0.091967         0.119383         2.830897
 H        -1.045499        -1.242249         2.113164
