19
Iteration:  2198
 O         0.661550         0.157835         0.158443
 C        -0.575909         0.434841         0.725376
 C        -1.894442        -0.037901         0.030649
 C        -2.554743         0.955551         0.957703
 C        -1.283155         1.864166         0.902452
 C        -1.148916         2.599564         2.231999
 O        -1.761331         1.692728         3.180091
 C        -2.145731         0.501484         2.442041
 C        -0.774525        -0.161269         2.087836
 H         1.367406         0.400502         0.722122
 H        -1.898794         0.347318        -0.932301
 H        -2.093046        -1.023814        -0.086697
 H        -3.517264         1.540014         0.731808
 H        -1.257263         2.428219        -0.093817
 H        -0.147844         2.821956         2.440655
 H        -1.730364         3.589320         2.365348
 H        -2.918166         0.006149         3.102855
 H        -0.010992         0.172604         2.725704
 H        -0.563450        -1.268169         2.082697
