19
Iteration:  3043
 O         0.746176         0.241895         0.074587
 C        -0.534523         0.365151         0.783750
 C        -1.896574         0.044087         0.056936
 C        -2.539406         0.943828         1.032579
 C        -1.194322         1.815953         0.926454
 C        -1.214548         2.616891         2.216361
 O        -1.928858         1.766770         3.164047
 C        -2.085151         0.483790         2.398638
 C        -0.705961        -0.200248         2.181227
 H         0.670571        -0.584477        -0.521023
 H        -1.872925         0.467957        -1.008878
 H        -2.261506        -1.045120         0.011242
 H        -3.519119         1.459923         0.998249
 H        -1.052720         2.361703         0.034018
 H        -0.166109         2.903870         2.405598
 H        -1.937627         3.502667         2.044599
 H        -2.956599        -0.166432         2.714615
 H         0.052684        -0.005963         2.993093
 H        -0.876358        -1.353130         2.376207
