19
Iteration:  2091
 O         0.682003         0.226680         0.041245
 C        -0.547067         0.429397         0.705231
 C        -1.833803        -0.088707         0.019138
 C        -2.529180         0.951603         1.031457
 C        -1.234687         1.856126         0.923411
 C        -1.147065         2.591726         2.234954
 O        -1.844464         1.755789         3.193517
 C        -2.151525         0.529771         2.470332
 C        -0.810548        -0.146417         2.141633
 H         0.962664        -0.588361         0.391641
 H        -1.839178         0.356195        -0.961589
 H        -2.044723        -1.264012        -0.060915
 H        -3.535192         1.295921         0.621657
 H        -1.276540         2.386832        -0.092491
 H        -0.079353         2.703762         2.592169
 H        -1.648901         3.588526         2.297894
 H        -2.814110        -0.018759         3.156397
 H        -0.038886         0.096448         2.919880
 H        -0.932807        -1.243781         2.076164
