19
Iteration:  1101
 O         0.718078         0.309428         0.106326
 C        -0.563318         0.386979         0.735880
 C        -1.845589         0.026823        -0.029506
 C        -2.526991         0.991211         0.964949
 C        -1.224817         1.949047         0.904807
 C        -1.094239         2.564939         2.292543
 O        -1.759590         1.691835         3.221471
 C        -2.199328         0.500114         2.382012
 C        -0.934726        -0.322153         2.145248
 H         1.284157        -0.280435         0.709062
 H        -2.118919         0.367209        -1.090438
 H        -2.194645        -0.990872         0.021111
 H        -3.561174         1.205951         0.719743
 H        -1.039380         2.456476        -0.034118
 H        -0.020992         2.819359         2.556174
 H        -1.571972         3.506615         2.320706
 H        -3.019792        -0.133004         2.826345
 H        -0.260041        -0.267210         3.013641
 H        -1.053867        -1.353395         1.973555
