19
Iteration:  4023charge 0 multiplicity 1
 O         0.743919         0.211095         0.286716
 C        -0.571845         0.369846         0.725261
 C        -1.878459         0.058867        -0.001558
 C        -2.524428         1.067410         1.036475
 C        -1.260019         1.830675         0.892786
 C        -1.156962         2.537078         2.207518
 O        -1.842471         1.694926         3.164809
 C        -2.080917         0.435107         2.403267
 C        -0.826279        -0.273329         2.033356
 H         0.614997         0.887207        -0.368117
 H        -1.749296         0.586131        -0.905676
 H        -2.274302        -0.944492         0.052960
 H        -3.389703         1.821249         1.054621
 H        -0.882238         2.329812        -0.143240
 H        -0.188501         2.846754         2.468751
 H        -1.706698         3.597005         2.247379
 H        -2.860430        -0.001793         3.031989
 H        -0.166813        -0.053933         2.835675
 H        -1.121848        -1.375748         1.955105
