19
Iteration:  1106
 O         0.689620         0.299454         0.115749
 C        -0.523578         0.423999         0.767723
 C        -1.821552         0.031063        -0.020598
 C        -2.587411         1.016654         0.962365
 C        -1.194940         1.921665         0.881744
 C        -1.107897         2.533402         2.280748
 O        -1.745069         1.692461         3.235997
 C        -2.205132         0.485349         2.370011
 C        -0.896441        -0.309315         2.122878
 H         1.232203        -0.206881         0.676759
 H        -1.957054         0.366837        -1.014279
 H        -2.237006        -1.016255         0.074987
 H        -3.696988         1.304506         0.863847
 H        -1.053686         2.481352        -0.109918
 H        -0.102659         2.726505         2.621019
 H        -1.626874         3.663450         2.119174
 H        -2.904287        -0.194681         2.812444
 H        -0.354497        -0.315216         3.082586
 H        -1.254866        -1.400329         1.879150
