19
Iteration:   967
 O         0.741545         0.284986         0.190367
 C        -0.606794         0.434916         0.619894
 C        -1.864428        -0.008048        -0.101749
 C        -2.489894         1.023992         1.002968
 C        -1.273087         1.850587         0.909293
 C        -1.036530         2.516885         2.289878
 O        -1.824734         1.740016         3.198200
 C        -2.129346         0.474296         2.432531
 C        -0.930167        -0.211479         2.126573
 H         0.861468        -0.731901         0.382300
 H        -1.885458         0.332426        -1.097597
 H        -2.189248        -1.113069        -0.103077
 H        -3.500345         1.480224         0.932353
 H        -1.231754         2.534306         0.064505
 H        -0.047123         2.557714         2.905188
 H        -1.454768         3.479879         2.479174
 H        -2.960929        -0.032068         2.965821
 H        -0.104841        -0.050491         2.809610
 H        -1.082285        -1.314725         2.101658
