19
Iteration:  1329
 O         0.690885         0.190145        -0.023527
 C        -0.550423         0.396726         0.777027
 C        -1.804659         0.010084        -0.016321
 C        -2.566885         1.009665         1.043047
 C        -1.194242         1.875775         0.963981
 C        -1.053769         2.494166         2.314378
 O        -1.955523         1.740068         3.201450
 C        -2.271830         0.534198         2.364649
 C        -0.761041        -0.195189         2.088024
 H         1.362304         0.236399         0.678852
 H        -1.857720         0.316284        -1.082138
 H        -2.043878        -1.020791        -0.028615
 H        -3.594143         1.428843         0.863914
 H        -1.069587         2.478051         0.060558
 H        -0.026926         2.396104         2.590577
 H        -1.248754         3.639922         2.548431
 H        -2.911733        -0.133786         3.005443
 H         0.044409         0.067121         2.865213
 H        -0.887125        -1.288821         2.237974
