19
Iteration:  1468charge 0 multiplicity 1
 O         0.717645         0.236963         0.110978
 C        -0.601679         0.473720         0.639910
 C        -1.921596         0.008556        -0.094512
 C        -2.508810         1.007101         0.947454
 C        -1.221699         1.820050         0.920738
 C        -1.066408         2.489736         2.348148
 O        -1.923675         1.742916         3.215898
 C        -2.153241         0.516283         2.476140
 C        -0.798289        -0.216813         2.109686
 H         1.353456         0.114983         0.926904
 H        -2.070768         0.265063        -1.112660
 H        -1.976656        -1.161274        -0.104890
 H        -3.573518         1.322132         0.983668
 H        -1.090198         2.423745         0.009332
 H         0.044456         2.412298         2.568194
 H        -1.305008         3.484637         2.456769
 H        -3.008717        -0.070008         2.957022
 H        -0.142534         0.157835         2.833856
 H        -0.573291        -1.299197         2.088577
