19
Iteration:  2514
 O         0.681347         0.217985         0.164745
 C        -0.560486         0.409220         0.627006
 C        -1.920775        -0.101731        -0.015552
 C        -2.532088         0.997250         1.026491
 C        -1.302467         1.835252         0.832505
 C        -1.133983         2.550764         2.252890
 O        -1.887682         1.695163         3.221799
 C        -2.070239         0.537877         2.449235
 C        -0.725687        -0.082867         2.089927
 H         1.140893         0.221922         0.974030
 H        -2.060128         0.210931        -1.048399
 H        -1.986750        -1.301274         0.045990
 H        -3.510197         1.556379         0.928488
 H        -1.224056         2.473769        -0.037649
 H        -0.065603         2.549385         2.643292
 H        -1.554416         3.571756         2.341832
 H        -2.670815        -0.041508         3.140019
 H         0.093588         0.152981         2.770708
 H        -0.810224        -1.246520         1.914937
