19
Iteration:  1118charge 0 multiplicity 1
 O         0.653226         0.272193         0.133672
 C        -0.563207         0.483152         0.818847
 C        -1.846592         0.059687         0.024532
 C        -2.563180         1.053657         0.979525
 C        -1.204658         1.798446         0.924933
 C        -1.115101         2.533891         2.213929
 O        -1.780683         1.637399         3.180284
 C        -2.169328         0.498021         2.390617
 C        -0.883851        -0.272275         2.048333
 H         1.333003        -0.111503         0.713692
 H        -1.553649         0.369709        -0.925275
 H        -2.018612        -1.072536        -0.041392
 H        -3.478973         1.668568         0.885503
 H        -1.061776         2.496033         0.098979
 H        -0.108456         2.722051         2.566720
 H        -1.726923         3.593730         2.201023
 H        -2.900219         0.088058         3.055418
 H        -0.130424        -0.255624         2.872161
 H        -1.059852        -1.399260         1.751661
