19
Iteration:   429charge 0 multiplicity 1
 O         0.554253         0.082729         0.077709
 C        -0.560772         0.427249         0.729127
 C        -1.800168         0.118999        -0.062724
 C        -2.450290         1.014489         0.943240
 C        -1.245288         1.934637         0.981875
 C        -1.040966         2.536273         2.366937
 O        -2.006302         1.774200         3.091469
 C        -2.104835         0.452686         2.365988
 C        -0.781927        -0.274649         2.223899
 H         1.376607         0.293303         0.571086
 H        -1.762743         0.509266        -1.182144
 H        -2.020673        -0.939083        -0.077203
 H        -3.504606         1.279649         0.939829
 H        -1.082428         2.608867         0.109750
 H        -0.010548         2.407053         2.854987
 H        -1.236175         3.540474         2.441609
 H        -2.852229        -0.141159         2.960949
 H         0.004656         0.086269         2.922661
 H        -0.775052        -1.366097         2.175954
