19
Iteration:  4006charge 0 multiplicity 1
 O         0.700924         0.204878         0.256489
 C        -0.556688         0.433375         0.752220
 C        -1.907666         0.063351        -0.028693
 C        -2.529644         1.031747         0.962777
 C        -1.176213         1.875370         0.934783
 C        -1.173148         2.617765         2.246563
 O        -1.777501         1.635270         3.152281
 C        -2.168130         0.496537         2.377276
 C        -0.825583        -0.309535         2.151889
 H         0.832641         0.296867        -0.628717
 H        -1.947999         0.510558        -1.093858
 H        -2.203772        -1.033667         0.106749
 H        -3.532745         1.346707         0.798286
 H        -1.175456         2.533265         0.087766
 H        -0.117303         2.935419         2.614992
 H        -1.793004         3.467982         2.177284
 H        -2.929211        -0.057344         2.958711
 H         0.047301        -0.095584         2.831266
 H        -0.799342        -1.346495         1.867450
