19
Iteration:  1481
 O         0.653231         0.243884         0.024069
 C        -0.545521         0.363803         0.770881
 C        -1.817440        -0.006105        -0.040349
 C        -2.531237         0.993675         0.992884
 C        -1.289706         1.946533         0.909141
 C        -1.027115         2.516070         2.328882
 O        -1.958954         1.689577         3.164341
 C        -2.136883         0.515809         2.398458
 C        -0.782628        -0.219370         2.170837
 H         1.388643         0.150924         0.634285
 H        -1.797757         0.488902        -1.063145
 H        -2.252057        -1.042350         0.034238
 H        -3.502559         1.501476         0.706026
 H        -1.060124         2.570375         0.016869
 H        -0.020574         2.374415         2.778399
 H        -1.315245         3.571754         2.447978
 H        -2.855115        -0.114757         3.000021
 H         0.058736         0.012439         2.870123
 H        -1.086725        -1.266574         2.197220
