19
Iteration:  1380charge 0 multiplicity 1
 O         0.677022         0.191956         0.063308
 C        -0.529507         0.405658         0.745953
 C        -1.901047         0.069362         0.015893
 C        -2.463917         1.066076         0.968026
 C        -1.240250         1.820173         0.929639
 C        -1.066120         2.597040         2.312367
 O        -1.935494         1.712690         3.176392
 C        -2.134792         0.442159         2.415522
 C        -0.805499        -0.285101         2.079351
 H         1.392697         0.461559         0.828815
 H        -1.998224         0.461543        -0.950735
 H        -2.279553        -1.068154        -0.004783
 H        -3.447553         1.439486         0.782177
 H        -1.200254         2.538838         0.131587
 H        -0.029661         2.883346         2.728207
 H        -1.686669         3.461474         2.270008
 H        -2.942809        -0.146548         2.928538
 H        -0.168601         0.027560         2.867653
 H        -0.705808        -1.414109         1.988838
