19
Iteration:  4372charge 0 multiplicity 1
 O         0.708440         0.301565         0.229999
 C        -0.559842         0.480942         0.644798
 C        -1.805997        -0.037857        -0.057467
 C        -2.598364         0.938346         0.980478
 C        -1.302270         1.919170         0.888956
 C        -1.002383         2.439094         2.351595
 O        -1.846136         1.740804         3.154086
 C        -2.181855         0.487890         2.447270
 C        -0.848633        -0.272435         2.153159
 H         0.726905         0.424099        -0.643671
 H        -1.878658         0.429906        -1.082979
 H        -1.969672        -1.186307         0.018461
 H        -3.645967         1.282059         0.934658
 H        -1.339074         2.709402         0.124503
 H         0.111197         2.320613         2.432465
 H        -1.056735         3.614920         2.489767
 H        -3.068989         0.096426         2.895176
 H        -0.075980         0.032690         2.887645
 H        -0.901324        -1.355778         1.913089
