19
Iteration:  2586
 O         0.708757         0.235931         0.051759
 C        -0.545868         0.427806         0.738333
 C        -1.904687        -0.126561         0.029908
 C        -2.574717         0.959494         1.047109
 C        -1.219017         1.843254         0.915634
 C        -1.131220         2.608980         2.287263
 O        -1.884214         1.721222         3.157196
 C        -2.135972         0.529751         2.401659
 C        -0.767583        -0.203634         2.125309
 H         1.399150         0.655089         0.555397
 H        -1.939058         0.112613        -1.042242
 H        -2.153107        -1.125709         0.078877
 H        -3.427012         1.512474         0.780767
 H        -1.217943         2.350776        -0.058506
 H        -0.115133         2.785132         2.693926
 H        -1.667323         3.606151         2.285417
 H        -2.893332        -0.106086         3.004991
 H         0.138480         0.170230         2.727339
 H        -0.865283        -1.240233         2.097375
