19
Iteration:  4483
 O         0.749862         0.405468         0.261365
 C        -0.597183         0.361763         0.701553
 C        -1.907874        -0.011304        -0.099832
 C        -2.572273         1.069452         0.965265
 C        -1.251192         1.761077         0.894376
 C        -0.996034         2.389049         2.315027
 O        -1.923884         1.774853         3.209604
 C        -2.144992         0.462438         2.442501
 C        -0.804057        -0.242662         2.049128
 H         0.702131        -0.137431        -0.644297
 H        -1.989644         0.573180        -1.003601
 H        -2.371854        -1.059302         0.073283
 H        -3.571027         1.360359         0.881780
 H        -1.053397         2.606776         0.196549
 H         0.040663         2.373007         2.632995
 H        -1.066173         3.590658         2.277887
 H        -2.809117        -0.155596         2.999347
 H        -0.047297         0.318903         2.703012
 H        -0.662695        -1.322115         2.150438
