19
Iteration:   412charge 0 multiplicity 1
 O         0.726898         0.074302         0.092711
 C        -0.588913         0.402669         0.725288
 C        -1.903119         0.063272        -0.034680
 C        -2.533357         1.025361         1.017508
 C        -1.108283         1.863957         0.904849
 C        -1.073804         2.494100         2.339739
 O        -2.050580         1.703454         3.172389
 C        -2.153160         0.543539         2.440150
 C        -0.739639        -0.116312         2.040004
 H         1.512758         0.217901         0.740351
 H        -1.877289         0.548625        -0.938096
 H        -2.360614        -0.944254        -0.218485
 H        -3.441761         1.602008         0.863830
 H        -0.988037         2.570041         0.093128
 H        -0.081338         2.393210         2.791785
 H        -1.457026         3.607099         2.511826
 H        -2.878870        -0.063091         2.935986
 H         0.006238         0.005809         2.809837
 H        -0.952263        -1.199291         1.980826
