19
Iteration:  3287
 O         0.671679         0.276372         0.204839
 C        -0.576716         0.399812         0.762494
 C        -1.947554        -0.052292        -0.004689
 C        -2.520645         0.928211         0.933140
 C        -1.306652         1.913028         0.804560
 C        -1.175159         2.581240         2.166987
 O        -1.830412         1.779135         3.195781
 C        -2.011267         0.501058         2.460635
 C        -0.765960        -0.266159         2.131741
 H         1.252755        -0.069543         1.014618
 H        -2.002858         0.305502        -1.072542
 H        -2.225433        -1.168206         0.018095
 H        -3.558302         1.217256         0.867775
 H        -1.169913         2.436702        -0.018846
 H        -0.110853         2.648300         2.488046
 H        -1.484499         3.644067         2.367028
 H        -2.688637        -0.035337         3.058761
 H         0.126135        -0.011036         2.846966
 H        -0.847859        -1.401032         1.970863
