19
Iteration:  2162
 O         0.701722         0.364204         0.000087
 C        -0.542582         0.366845         0.776414
 C        -1.850409        -0.079028         0.078141
 C        -2.524150         0.952429         1.008694
 C        -1.262281         1.788126         0.875277
 C        -1.103308         2.596172         2.192989
 O        -1.848504         1.758744         3.143758
 C        -2.185040         0.546429         2.490964
 C        -0.830491        -0.308303         2.169547
 H         1.360680         0.106180         0.608464
 H        -1.914044         0.534699        -0.905442
 H        -2.247910        -1.157498         0.051754
 H        -3.369314         1.533738         0.841220
 H        -1.136330         2.385341         0.039386
 H        -0.061110         2.608716         2.523557
 H        -1.493322         3.590946         2.197223
 H        -2.923002         0.102295         3.179842
 H        -0.130368        -0.115514         3.046127
 H        -1.052233        -1.397921         2.016924
