19
Iteration:  4585charge 0 multiplicity 1
 O         0.655959         0.022407         0.058597
 C        -0.525717         0.484936         0.762872
 C        -1.856014         0.105779        -0.026358
 C        -2.443645         1.001196         1.017979
 C        -1.235240         1.984292         0.907600
 C        -1.220209         2.529187         2.355194
 O        -1.891911         1.637840         3.222415
 C        -2.095653         0.506204         2.395913
 C        -0.791750        -0.219707         2.083481
 H         1.273937         0.716369        -0.202000
 H        -1.694978         0.569797        -1.016357
 H        -2.041390        -0.919899        -0.190322
 H        -3.426853         1.538168         0.980140
 H        -1.130126         2.714256         0.108592
 H        -0.236815         2.724244         2.733951
 H        -1.899646         3.484332         2.353282
 H        -2.891267        -0.127059         2.912929
 H        -0.110105        -0.123194         2.935857
 H        -0.943815        -1.347637         1.941825
