19
Iteration:  3723
 O         0.704779         0.307779         0.181000
 C        -0.552948         0.387950         0.783163
 C        -1.911065        -0.033942        -0.009210
 C        -2.476741         0.952185         1.029665
 C        -1.140850         1.849356         0.872483
 C        -1.152115         2.620875         2.198710
 O        -1.894028         1.735861         3.141824
 C        -2.059690         0.516346         2.445294
 C        -0.830882        -0.256911         2.145580
 H         0.701166        -0.629305        -0.324660
 H        -2.056845         0.511425        -0.979039
 H        -2.329331        -0.988529         0.037649
 H        -3.589134         1.235999         0.980339
 H        -1.202359         2.466179        -0.040839
 H        -0.254096         2.885516         2.657161
 H        -1.791394         3.574348         2.083182
 H        -2.807348        -0.105027         2.990039
 H         0.069836        -0.251097         2.823568
 H        -1.106429        -1.313385         2.036138
