19
Iteration:  4665
 O         0.737543         0.332646         0.333369
 C        -0.646135         0.466658         0.671825
 C        -1.849509         0.004423        -0.116990
 C        -2.521118         0.931273         0.983709
 C        -1.349399         1.903601         0.909508
 C        -0.998478         2.478273         2.271989
 O        -1.737315         1.683822         3.232003
 C        -2.181392         0.495871         2.422758
 C        -0.913396        -0.218283         2.068408
 H         0.792948        -0.018183        -0.568344
 H        -2.000991         0.443675        -1.076549
 H        -2.000309        -0.987217        -0.111648
 H        -3.573312         1.180446         0.739803
 H        -1.235140         2.535211         0.019422
 H         0.086720         2.406162         2.342580
 H        -1.219500         3.489328         2.383522
 H        -2.849293        -0.122451         2.952486
 H        -0.149941        -0.151675         2.857474
 H        -1.231255        -1.267186         1.907130
