19
Iteration:  3280charge 0 multiplicity 1
 O         0.675613         0.301474         0.221530
 C        -0.564654         0.396148         0.784244
 C        -1.954931        -0.095586         0.083371
 C        -2.543929         0.943124         0.925225
 C        -1.302425         1.852870         0.812751
 C        -1.155490         2.567883         2.211374
 O        -1.810572         1.755177         3.135875
 C        -2.066500         0.483783         2.419146
 C        -0.729289        -0.195032         2.085404
 H         1.306970         0.093005         0.870736
 H        -1.970964         0.392794        -0.905157
 H        -2.330798        -1.068007         0.011020
 H        -3.554194         1.419509         0.928628
 H        -1.075352         2.580773        -0.089553
 H        -0.082486         2.463228         2.408223
 H        -1.472856         3.659451         2.317436
 H        -2.808857        -0.098916         3.027956
 H         0.069376        -0.037718         2.774686
 H        -1.009605        -1.239419         2.088610
