19
Iteration:  3729
 O         0.712564         0.294953         0.157761
 C        -0.541529         0.363307         0.758297
 C        -1.929842        -0.042302        -0.025834
 C        -2.506587         0.971921         0.968490
 C        -1.208130         1.890273         0.885274
 C        -1.187869         2.571432         2.227550
 O        -1.872941         1.751724         3.176186
 C        -2.066380         0.561235         2.463504
 C        -0.781659        -0.276879         2.153001
 H         0.843613        -0.574988        -0.118571
 H        -1.898936         0.430008        -1.011360
 H        -2.224598        -1.188046        -0.084321
 H        -3.505502         1.329088         1.002458
 H        -1.007112         2.492251        -0.078190
 H        -0.153737         2.913238         2.636119
 H        -1.743688         3.473431         2.072423
 H        -2.785052         0.022262         3.061574
 H        -0.043900        -0.244497         2.949645
 H        -1.141078        -1.352114         2.079095
