19
Iteration:  4136
 O         0.731113         0.131660         0.190614
 C        -0.525992         0.451496         0.813084
 C        -1.810972         0.120072         0.014146
 C        -2.568759         0.984626         0.933557
 C        -1.292909         1.904584         0.906523
 C        -1.204871         2.563642         2.292109
 O        -1.791663         1.670125         3.164398
 C        -2.117397         0.442001         2.421141
 C        -0.829583        -0.234588         2.111214
 H         0.432387        -0.050605        -0.840564
 H        -1.629608         0.683646        -0.929523
 H        -2.163418        -0.954228        -0.091070
 H        -3.475991         1.451011         0.729418
 H        -1.153334         2.445430        -0.100081
 H        -0.191185         2.847997         2.586896
 H        -1.655623         3.669716         2.169246
 H        -2.846601         0.079281         3.109784
 H        -0.119646        -0.022575         2.984001
 H        -0.910488        -1.259751         1.823633
