19
Iteration:  2188charge 0 multiplicity 1
 O         0.580310         0.199664         0.108249
 C        -0.598309         0.480182         0.776695
 C        -1.792768        -0.081624         0.007529
 C        -2.576594         0.950971         0.970999
 C        -1.281792         1.881144         0.900341
 C        -1.116162         2.594687         2.219423
 O        -1.737641         1.718584         3.172839
 C        -2.161274         0.491223         2.384632
 C        -0.753637        -0.233668         2.156580
 H         1.224805         0.339643         0.852720
 H        -1.773222         0.286155        -0.941659
 H        -1.977900        -1.086552         0.081762
 H        -3.668099         1.378782         0.886619
 H        -1.067765         2.649477         0.054496
 H        -0.132005         2.786463         2.575808
 H        -1.693470         3.637524         2.089719
 H        -2.941567         0.066368         3.073014
 H        -0.148310         0.050452         2.974272
 H        -0.833222        -1.292505         1.868972
