19
Iteration:   258
 O         0.689130         0.152597         0.051357
 C        -0.542021         0.336982         0.677709
 C        -1.864881         0.026230        -0.053994
 C        -2.404470         1.007307         1.032130
 C        -1.056612         1.826030         0.929235
 C        -1.099386         2.541555         2.345691
 O        -2.013795         1.781914         3.138817
 C        -2.189617         0.532497         2.491721
 C        -0.841210        -0.239307         2.116792
 H         1.223441         0.734303         0.501683
 H        -2.053902         0.571973        -0.935512
 H        -2.283828        -1.020883        -0.052917
 H        -3.359743         1.546595         0.903683
 H        -1.203974         2.481518         0.053882
 H        -0.133654         2.601217         2.948718
 H        -1.589090         3.517961         2.193462
 H        -3.066815         0.079934         2.849750
 H        -0.142225        -0.015469         2.935631
 H        -1.109187        -1.324397         2.093752
