19
Iteration:  2599
 O         0.719575         0.202293         0.139243
 C        -0.562762         0.397208         0.691142
 C        -1.946252         0.002705         0.069057
 C        -2.467489         1.008050         0.979787
 C        -1.304969         1.861432         0.857187
 C        -1.183526         2.553574         2.200857
 O        -1.869950         1.668647         3.148287
 C        -2.064244         0.483515         2.459915
 C        -0.743544        -0.142065         2.086690
 H         1.438888         0.459102         0.847293
 H        -2.054163         0.318035        -0.923452
 H        -2.284705        -0.975062         0.371184
 H        -3.504173         1.285493         1.143001
 H        -1.297997         2.554022         0.082452
 H        -0.194461         2.710707         2.553316
 H        -1.759536         3.580665         2.147040
 H        -2.811463        -0.154548         3.029776
 H         0.006041         0.086420         2.948686
 H        -0.751955        -1.269337         2.066939
