19
Iteration:  1740charge 0 multiplicity 1
 O         0.662035         0.263400         0.205801
 C        -0.595597         0.399083         0.666920
 C        -1.886471         0.004007        -0.027590
 C        -2.562081         0.945052         1.018138
 C        -1.289944         1.868816         0.865758
 C        -1.015205         2.526668         2.271355
 O        -1.873227         1.817784         3.143007
 C        -2.106080         0.404563         2.438029
 C        -0.792496        -0.276641         2.120745
 H         1.228049         1.054726         0.486349
 H        -1.837360         0.261526        -1.012742
 H        -2.299467        -1.014506        -0.038328
 H        -3.593521         1.451484         0.822730
 H        -1.241087         2.478053        -0.056603
 H         0.010269         2.403394         2.578396
 H        -1.101142         3.698522         2.303738
 H        -2.830172        -0.118720         3.163131
 H        -0.055184        -0.019326         2.884919
 H        -0.825378        -1.447044         2.058040
