19
Iteration:  4110charge 0 multiplicity 1
 O         0.712455         0.237064         0.193265
 C        -0.572673         0.366040         0.659416
 C        -1.850134         0.019374        -0.015185
 C        -2.454007         0.939305         1.005227
 C        -1.211426         1.859446         0.966272
 C        -1.119788         2.550039         2.324247
 O        -1.918258         1.704355         3.194858
 C        -2.146354         0.543107         2.404808
 C        -0.827425        -0.226538         2.073531
 H         0.781265        -0.036748        -0.816099
 H        -1.990995         0.432662        -0.985235
 H        -2.144794        -1.024753         0.021649
 H        -3.430473         1.563560         0.875038
 H        -1.107443         2.575806         0.077634
 H        -0.067099         2.739878         2.666221
 H        -1.592435         3.661786         2.247839
 H        -3.056355         0.154591         2.983615
 H        -0.022315         0.151505         2.687234
 H        -0.787141        -1.387285         2.033585
