19
Iteration:   810charge 0 multiplicity 1
 O         0.661471         0.341266         0.198030
 C        -0.602796         0.347537         0.761303
 C        -1.889397         0.021403        -0.046871
 C        -2.445719         1.057002         0.969035
 C        -1.267143         1.906216         0.926315
 C        -1.019680         2.577297         2.266671
 O        -1.854836         1.686223         3.128395
 C        -2.126759         0.485801         2.402147
 C        -0.890444        -0.315217         2.125114
 H         1.016841        -0.511892         0.468700
 H        -2.015697         0.346121        -1.154864
 H        -2.065326        -1.050000         0.134668
 H        -3.417854         1.479005         1.008322
 H        -1.079969         2.353942        -0.065777
 H         0.057402         2.330934         2.532351
 H        -1.381081         3.541237         2.376429
 H        -2.965864         0.013727         2.861711
 H        -0.052574         0.034266         2.766848
 H        -0.994572        -1.421295         2.016454
