19
Iteration:  1785
 O         0.697056         0.244246        -0.001584
 C        -0.559634         0.441472         0.793518
 C        -1.851976        -0.041166        -0.011180
 C        -2.476291         0.969175         0.981493
 C        -1.277240         1.884980         0.960592
 C        -1.146853         2.538906         2.246505
 O        -1.805842         1.744802         3.232297
 C        -2.190061         0.514278         2.367475
 C        -0.866742        -0.216213         2.179271
 H         1.331570        -0.383259         0.448924
 H        -1.903086         0.229207        -0.977247
 H        -1.989982        -1.122546         0.077595
 H        -3.518973         1.287686         0.782132
 H        -1.169344         2.486716         0.065462
 H        -0.064435         2.635609         2.454413
 H        -1.623484         3.609346         2.296499
 H        -2.974641         0.009402         2.925642
 H        -0.133750         0.157196         2.924749
 H        -0.683493        -1.318890         2.107989
