19
Iteration:  2874
 O         0.689709         0.140958        -0.037100
 C        -0.500363         0.412343         0.771303
 C        -1.796518        -0.011049         0.053993
 C        -2.519419         0.972712         1.021815
 C        -1.230737         1.833379         0.913645
 C        -1.206230         2.621017         2.213390
 O        -1.889121         1.722525         3.182033
 C        -2.165587         0.540090         2.460712
 C        -0.794446        -0.235174         2.152711
 H         1.422580         0.721680         0.416227
 H        -1.877433         0.479121        -0.907232
 H        -2.112052        -1.093252         0.124535
 H        -3.524582         1.460519         0.865198
 H        -1.076048         2.515761         0.019332
 H        -0.201288         2.905292         2.688193
 H        -1.778608         3.485484         2.229655
 H        -2.920511         0.027352         3.058315
 H        -0.205252        -0.085789         3.040698
 H        -0.870786        -1.331673         2.099963
