19
Iteration:  1697
 O         0.704979         0.194814         0.161437
 C        -0.641751         0.412066         0.771766
 C        -1.891045        -0.034456        -0.030596
 C        -2.488439         1.041758         0.914330
 C        -1.210184         1.870993         0.904522
 C        -1.046694         2.595402         2.279196
 O        -1.889977         1.694541         3.204536
 C        -2.156085         0.472984         2.460698
 C        -0.776451        -0.236546         2.112595
 H         0.686374         0.890996        -0.445017
 H        -1.925966         0.195402        -0.998220
 H        -2.062311        -1.105418         0.062830
 H        -3.549037         1.438683         0.845389
 H        -1.170695         2.471101        -0.021614
 H        -0.089545         2.803641         2.577233
 H        -1.589490         3.587076         2.375091
 H        -2.934019        -0.169579         2.964656
 H        -0.017959         0.071803         2.834259
 H        -0.751715        -1.377421         2.017653
