19
Iteration:  4146charge 0 multiplicity 1
 O         0.695553         0.137198         0.220956
 C        -0.544346         0.433246         0.762130
 C        -1.790157         0.100765        -0.002753
 C        -2.530701         0.974775         1.002253
 C        -1.278098         1.892520         0.972278
 C        -1.178658         2.628695         2.248440
 O        -1.775442         1.654735         3.129278
 C        -2.188180         0.524613         2.389002
 C        -0.815663        -0.278656         2.100241
 H         0.646745         0.075339        -0.803641
 H        -1.836732         0.548228        -0.992810
 H        -2.081708        -0.973218        -0.138843
 H        -3.519506         1.354510         0.881487
 H        -1.172186         2.629578         0.086792
 H        -0.130227         2.804729         2.518843
 H        -1.907064         3.564126         2.433090
 H        -2.889850        -0.110798         2.879269
 H        -0.045769         0.003737         2.885957
 H        -0.764320        -1.375704         2.007935
