19
Iteration:  1658charge 0 multiplicity 1
 O         0.753448         0.203468         0.122765
 C        -0.486661         0.472258         0.695497
 C        -1.838252         0.026071        -0.049869
 C        -2.543017         0.991723         1.065485
 C        -1.213583         1.853119         0.922042
 C        -1.084842         2.587751         2.199222
 O        -1.956082         1.656004         3.241356
 C        -2.214787         0.498144         2.511951
 C        -0.808347        -0.214522         2.109511
 H         0.595795        -0.396780        -0.754145
 H        -1.889291         0.526953        -1.176630
 H        -2.208747        -1.018339         0.030534
 H        -3.400136         1.568239         0.899928
 H        -1.130579         2.469584         0.024733
 H        -0.057743         2.667667         2.769079
 H        -1.571480         3.529791         2.134837
 H        -2.973653        -0.022315         3.024012
 H         0.058974         0.110236         2.741824
 H        -0.799688        -1.254783         2.055018
