19
Iteration:  4671
 O         0.741316         0.312520         0.324093
 C        -0.605238         0.454428         0.673667
 C        -1.842041         0.083353        -0.090750
 C        -2.554151         0.928071         0.945858
 C        -1.355647         1.878863         0.873204
 C        -1.004590         2.525111         2.239913
 O        -1.745194         1.634985         3.249154
 C        -2.155816         0.508626         2.472363
 C        -0.924242        -0.240840         2.078661
 H         0.803785         0.003658        -0.683089
 H        -1.982580         0.448025        -1.162052
 H        -1.967223        -1.104453        -0.015081
 H        -3.524821         1.387378         0.754084
 H        -1.217516         2.503626        -0.005184
 H         0.090632         2.452187         2.449985
 H        -1.458092         3.638032         2.359475
 H        -2.907391        -0.151774         3.006955
 H        -0.114795        -0.166995         2.800822
 H        -1.247822        -1.310068         2.032908
