19
Iteration:  3661charge 0 multiplicity 1
 O         0.690331         0.178149         0.145451
 C        -0.609022         0.478335         0.706793
 C        -1.834815        -0.102185         0.028775
 C        -2.609010         0.974731         1.061088
 C        -1.241459         1.834007         0.896018
 C        -1.044490         2.464571         2.239324
 O        -1.905490         1.792008         3.115697
 C        -2.165898         0.509629         2.430395
 C        -0.759042        -0.158009         2.140502
 H         1.191941         1.146496         0.116093
 H        -1.905803         0.128044        -1.054659
 H        -2.074050        -1.220690         0.174987
 H        -3.579312         1.429845         0.820859
 H        -1.242761         2.509612         0.117607
 H         0.060861         2.483015         2.667214
 H        -1.319444         3.488441         2.182721
 H        -2.943137        -0.106278         2.965264
 H         0.028950         0.301711         2.751108
 H        -0.510242        -1.193213         2.057968
