19
Iteration:  3761
 O         0.636832         0.214518         0.127468
 C        -0.569149         0.479820         0.722787
 C        -1.878566        -0.017219         0.037437
 C        -2.522416         0.907111         1.024608
 C        -1.206810         1.882927         0.865225
 C        -1.048111         2.541741         2.226579
 O        -1.831288         1.654758         3.157767
 C        -2.186491         0.516893         2.386786
 C        -0.836047        -0.117299         2.149523
 H         1.423955         0.178222         0.790753
 H        -1.928262         0.321408        -0.976404
 H        -2.018269        -1.148934        -0.072873
 H        -3.512336         1.259625         0.896586
 H        -1.146000         2.536678        -0.050526
 H         0.004409         2.710735         2.692300
 H        -1.588656         3.444858         2.158196
 H        -2.890090        -0.047889         2.984263
 H        -0.255244         0.225784         2.971532
 H        -0.903551        -1.210714         2.094835
