19
Iteration:  3162
 O         0.617856         0.199758         0.100893
 C        -0.520192         0.490538         0.761692
 C        -1.861790        -0.038645         0.045407
 C        -2.501498         0.893759         1.001643
 C        -1.230712         1.887239         0.865569
 C        -1.182207         2.641249         2.214995
 O        -1.831791         1.678410         3.155197
 C        -2.127696         0.531074         2.386383
 C        -0.787658        -0.214493         2.200790
 H         1.455473         0.069364         0.687677
 H        -1.700486         0.325394        -0.998233
 H        -2.098171        -1.136988        -0.115404
 H        -3.461338         1.434461         0.861039
 H        -1.328299         2.590622        -0.106561
 H        -0.147608         2.815911         2.672914
 H        -1.799876         3.483284         2.237933
 H        -2.907178        -0.013844         2.989366
 H         0.031432        -0.094274         2.896281
 H        -0.975811        -1.306576         2.069203
