19
Iteration:  4133charge 0 multiplicity 1
 O         0.738959         0.133519         0.173422
 C        -0.529985         0.467787         0.826930
 C        -1.818293         0.098507        -0.023981
 C        -2.567859         1.024152         0.950631
 C        -1.280150         1.908417         0.886714
 C        -1.199176         2.552412         2.281447
 O        -1.811419         1.673183         3.200383
 C        -2.097256         0.408759         2.432617
 C        -0.821304        -0.205160         2.120608
 H         0.432657        -0.058632        -0.735664
 H        -1.648217         0.560034        -0.952615
 H        -2.130252        -0.952835        -0.154581
 H        -3.600726         1.442922         0.611910
 H        -1.149186         2.424407        -0.183278
 H        -0.175639         2.774278         2.652030
 H        -1.663913         3.698360         2.086280
 H        -2.857648         0.102076         3.163537
 H        -0.140900        -0.126329         2.992533
 H        -1.025091        -1.326973         1.863553
