19
Iteration:  2590
 O         0.719541         0.225591         0.071337
 C        -0.535620         0.422245         0.742884
 C        -1.924512        -0.089812         0.042301
 C        -2.545522         0.966349         1.043745
 C        -1.248782         1.842975         0.900181
 C        -1.136492         2.604806         2.268847
 O        -1.883031         1.690173         3.147245
 C        -2.112772         0.524490         2.402750
 C        -0.781500        -0.168687         2.122956
 H         1.490097         0.632836         0.637016
 H        -1.938699         0.093948        -1.015552
 H        -2.269375        -1.201529         0.127518
 H        -3.476929         1.583794         0.851178
 H        -1.314636         2.376148        -0.018451
 H        -0.178354         2.790562         2.714726
 H        -1.689070         3.607873         2.267157
 H        -2.814904        -0.036029         2.975951
 H         0.165798         0.117406         2.585322
 H        -0.831321        -1.341569         2.102487
