19
Iteration:  3232charge 0 multiplicity 1
 O         0.641205         0.267322        -0.003588
 C        -0.568701         0.348548         0.825723
 C        -1.779429        -0.074154         0.019494
 C        -2.549833         0.939766         0.978831
 C        -1.317100         1.804179         0.923405
 C        -1.035370         2.508114         2.265371
 O        -1.959734         1.791961         3.104141
 C        -2.094776         0.607460         2.443524
 C        -0.756758        -0.167512         2.161029
 H         1.347742         0.569598         0.750421
 H        -1.767906         0.281702        -1.019750
 H        -1.989965        -1.197572        -0.002372
 H        -3.580120         1.300958         0.979762
 H        -1.279377         2.375180         0.125854
 H        -0.072784         2.372757         2.713221
 H        -1.420303         3.568505         2.311301
 H        -2.824889         0.085333         3.027960
 H         0.013793        -0.106728         3.018593
 H        -1.006034        -1.284258         2.079178
