19
Iteration:   596
 O         0.624351         0.068318         0.036310
 C        -0.540704         0.482274         0.716349
 C        -1.779176         0.014699        -0.102787
 C        -2.449948         0.953171         0.966554
 C        -1.203275         1.893735         0.877271
 C        -1.069213         2.546054         2.439024
 O        -1.927683         1.703187         3.225932
 C        -2.225946         0.582105         2.451642
 C        -0.842038        -0.179057         2.113705
 H         1.386916         0.275214         0.504738
 H        -1.969279         0.449057        -1.032608
 H        -1.880721        -1.122608        -0.199697
 H        -3.395937         1.521925         0.766720
 H        -1.330309         2.640991         0.064455
 H         0.050103         2.616552         2.769355
 H        -1.456853         3.489525         2.451405
 H        -2.967199         0.015090         3.017279
 H        -0.085072         0.015805         2.857749
 H        -1.073418        -1.259604         2.072597
