19
Iteration:  4591
 O         0.615852         0.049616         0.061327
 C        -0.511227         0.459806         0.714136
 C        -1.766482         0.103261        -0.005519
 C        -2.457589         1.015545         0.975966
 C        -1.217249         1.928815         0.979682
 C        -1.228330         2.548142         2.349273
 O        -1.885166         1.664278         3.215091
 C        -2.106658         0.456990         2.407489
 C        -0.838163        -0.201198         2.085258
 H         1.083574         0.944016        -0.263655
 H        -1.842864         0.497398        -1.030650
 H        -2.166749        -1.013421         0.015171
 H        -3.479424         1.345510         0.959753
 H        -1.011022         2.761761         0.259370
 H        -0.165339         2.654250         2.748808
 H        -1.590735         3.604460         2.258788
 H        -2.886835        -0.150285         2.796698
 H        -0.038831        -0.068978         2.844468
 H        -0.980064        -1.237328         1.927638
