19
Iteration:  2756
 O         0.735371         0.369927         0.096620
 C        -0.565948         0.369490         0.718608
 C        -1.891380        -0.062475         0.077057
 C        -2.529486         0.976606         1.030481
 C        -1.155140         1.784293         0.893941
 C        -1.217183         2.550121         2.209089
 O        -1.829330         1.727101         3.180008
 C        -2.183746         0.567095         2.405365
 C        -0.770025        -0.243841         2.153406
 H         0.881333        -0.559408        -0.199853
 H        -1.994934         0.254855        -0.989427
 H        -2.283350        -1.069634         0.368844
 H        -3.515783         1.458188         0.967179
 H        -0.817135         2.357590        -0.030176
 H        -0.304032         3.007940         2.580649
 H        -1.949866         3.512874         1.892967
 H        -2.882902         0.061460         2.949363
 H        -0.071563         0.083958         2.909070
 H        -0.692697        -1.442237         2.282948
