19
Iteration:  1745charge 0 multiplicity 1
 O         0.616683         0.287383         0.201502
 C        -0.575427         0.420304         0.712489
 C        -1.862880        -0.026969        -0.003802
 C        -2.534016         0.973660         0.993259
 C        -1.242206         1.827529         0.882769
 C        -1.065488         2.509545         2.250129
 O        -1.872389         1.831739         3.148414
 C        -2.123089         0.424529         2.439398
 C        -0.767799        -0.311792         2.061340
 H         1.228467         0.971585         0.637778
 H        -2.039573         0.352595        -1.137368
 H        -2.405887        -0.988778         0.022749
 H        -3.487724         1.398508         1.055507
 H        -1.245386         2.502587         0.025176
 H         0.036090         2.434230         2.558041
 H        -1.086419         3.560211         2.188970
 H        -2.785131        -0.124808         3.030367
 H        -0.048830         0.035746         2.872016
 H        -0.921193        -1.343637         2.130588
