19
Iteration:  3317charge 0 multiplicity 1
 O         0.713610         0.206707         0.059380
 C        -0.512897         0.417534         0.784368
 C        -1.855246         0.002885         0.064676
 C        -2.560841         0.871071         1.050056
 C        -1.219471         1.810698         0.915776
 C        -1.247879         2.579403         2.171015
 O        -1.782877         1.776058         3.171811
 C        -2.145368         0.539578         2.437592
 C        -0.861699        -0.159694         2.119266
 H         1.297822        -0.216259         0.576826
 H        -1.884146         0.572927        -0.845415
 H        -1.987477        -1.093712        -0.214693
 H        -3.492171         1.321618         0.783413
 H        -1.256552         2.314286        -0.174938
 H        -0.188341         2.834990         2.543291
 H        -1.753969         3.484751         2.120651
 H        -2.711962        -0.062707         3.142325
 H        -0.174514         0.105129         2.925636
 H        -0.793225        -1.213851         1.942675
