19
Iteration:  4380
 O         0.722377         0.267839         0.218501
 C        -0.606992         0.472644         0.721708
 C        -1.874537        -0.010713        -0.044328
 C        -2.540472         0.938920         0.961021
 C        -1.291307         1.937076         0.878934
 C        -0.999539         2.530514         2.353085
 O        -1.865255         1.740096         3.169518
 C        -2.130554         0.430916         2.394238
 C        -0.838012        -0.242427         2.114066
 H         0.776583         0.397350        -0.694430
 H        -1.767981         0.312169        -1.092762
 H        -2.128067        -1.025476        -0.067774
 H        -3.650706         1.159973         0.883601
 H        -1.161074         2.526820         0.028202
 H         0.043755         2.394213         2.511992
 H        -1.355074         3.545356         2.637160
 H        -2.743795        -0.195121         3.094410
 H        -0.152401        -0.127429         2.892999
 H        -1.090960        -1.286064         2.071524
