19
Iteration:   915
 O         0.672229         0.234880         0.062726
 C        -0.521662         0.324781         0.737982
 C        -1.916530         0.037768        -0.052054
 C        -2.552946         1.005406         0.902016
 C        -1.195942         1.832526         1.004877
 C        -1.017374         2.536722         2.316451
 O        -1.889776         1.725743         3.204256
 C        -2.192056         0.542985         2.389542
 C        -0.854284        -0.231013         2.101992
 H         1.555096         0.468071         0.644471
 H        -2.055504         0.264017        -1.108999
 H        -2.100245        -0.984162         0.070638
 H        -3.535051         1.439938         0.808209
 H        -0.827608         2.473326         0.258151
 H        -0.071525         2.598157         2.724796
 H        -1.375176         3.641492         2.505753
 H        -2.979070        -0.029710         2.976084
 H        -0.076719        -0.039825         2.846880
 H        -0.943512        -1.286107         2.197058
