19
Iteration:   677charge 0 multiplicity 1
 O         0.676458         0.256640         0.160035
 C        -0.596673         0.511364         0.773003
 C        -1.877892         0.011933        -0.062139
 C        -2.524980         0.945469         1.009604
 C        -1.220844         1.947718         0.900264
 C        -0.966398         2.540133         2.295504
 O        -1.850370         1.674222         3.088517
 C        -2.201009         0.490260         2.408651
 C        -0.864104        -0.284844         2.136344
 H         0.962498        -0.238626         0.842023
 H        -1.780498         0.552091        -1.076998
 H        -2.146205        -1.000673        -0.055649
 H        -3.501749         1.386657         0.999362
 H        -1.188079         2.584671         0.037557
 H         0.171534         2.451738         2.515274
 H        -1.373814         3.601289         2.339812
 H        -3.014923        -0.010529         3.025475
 H        -0.146083        -0.327123         3.004544
 H        -1.071459        -1.326692         1.864160
