19
Iteration:  2495
 O         0.719199         0.191563         0.105095
 C        -0.562887         0.458425         0.778493
 C        -1.878413         0.032548         0.024226
 C        -2.548290         0.900126         1.020905
 C        -1.322786         1.885635         0.927039
 C        -1.162288         2.617856         2.167968
 O        -1.771309         1.718799         3.151369
 C        -2.162890         0.461251         2.440792
 C        -0.739924        -0.209976         2.107783
 H         1.267097        -0.069006         0.758775
 H        -1.958798         0.362858        -1.015618
 H        -2.118935        -1.006316        -0.033073
 H        -3.654585         1.127829         0.787123
 H        -1.351374         2.521730        -0.072222
 H        -0.103725         2.871592         2.472914
 H        -1.719993         3.495079         2.277692
 H        -2.866555        -0.027033         3.082193
 H        -0.148348         0.193828         2.865947
 H        -0.870561        -1.279713         2.175050
