19
Iteration:  1075
 O         0.679435         0.295469         0.178602
 C        -0.590122         0.404552         0.738480
 C        -1.872824         0.058565        -0.070836
 C        -2.589553         1.048862         1.025983
 C        -1.180242         1.807324         0.917892
 C        -1.057156         2.466314         2.266083
 O        -1.874391         1.730651         3.182806
 C        -2.162765         0.485911         2.402225
 C        -0.789593        -0.203243         2.067583
 H         1.157199        -0.451078         0.722340
 H        -1.881249         0.406800        -1.080034
 H        -2.286693        -1.042434        -0.117759
 H        -3.545933         1.580786         0.895297
 H        -1.078280         2.382564        -0.012509
 H        -0.064141         2.580487         2.681615
 H        -1.490489         3.466810         2.192389
 H        -2.776615        -0.217859         2.952429
 H        -0.042052        -0.069047         2.869665
 H        -0.861443        -1.359210         1.957015
