19
Iteration:  3777charge 0 multiplicity 1
 O         0.662906         0.166290         0.171075
 C        -0.604025         0.444992         0.739846
 C        -1.874983        -0.016180         0.013249
 C        -2.542363         1.024641         0.976629
 C        -1.261368         1.883655         0.880111
 C        -1.089671         2.482227         2.252123
 O        -1.929988         1.761809         3.087858
 C        -2.081105         0.473070         2.467793
 C        -0.730393        -0.215623         2.139883
 H         1.221207         0.985451         0.539612
 H        -1.978871         0.330981        -1.076938
 H        -2.193388        -1.041418         0.136930
 H        -3.592819         1.457281         0.916686
 H        -1.101646         2.568928         0.007243
 H        -0.038303         2.342669         2.509532
 H        -1.274050         3.599649         2.386067
 H        -2.844052        -0.102556         3.041979
 H         0.173428        -0.089381         2.834320
 H        -0.791577        -1.319099         1.935236
