19
Iteration:  2782charge 0 multiplicity 1
 O         0.654317         0.313382         0.109802
 C        -0.560466         0.434586         0.753602
 C        -1.842546        -0.068406         0.036606
 C        -2.518421         0.953201         0.969123
 C        -1.304579         1.836040         0.905132
 C        -1.143926         2.563935         2.217957
 O        -1.819378         1.742040         3.170317
 C        -2.115946         0.518221         2.404943
 C        -0.800692        -0.207844         2.156214
 H         1.070837        -0.487544         0.334799
 H        -1.725757         0.272667        -1.018936
 H        -2.105123        -1.086061         0.235127
 H        -3.526126         1.308255         0.834750
 H        -1.140081         2.433590         0.001874
 H        -0.017479         2.687906         2.369070
 H        -1.584336         3.532872         2.188787
 H        -2.822790        -0.106722         3.061099
 H        -0.187790        -0.013272         3.072255
 H        -0.777415        -1.269592         2.126034
