19
Iteration:   595
 O         0.620418         0.067438         0.032138
 C        -0.546554         0.478494         0.712348
 C        -1.775057         0.015586        -0.099925
 C        -2.444976         0.948420         0.965590
 C        -1.203207         1.888549         0.884076
 C        -1.070710         2.538131         2.443750
 O        -1.927074         1.707601         3.220709
 C        -2.226675         0.585222         2.450768
 C        -0.845740        -0.169804         2.110943
 H         1.432318         0.287204         0.527019
 H        -1.969115         0.455281        -1.034913
 H        -1.896133        -1.106575        -0.210279
 H        -3.369050         1.489760         0.778737
 H        -1.293738         2.632316         0.079515
 H         0.006192         2.627608         2.769753
 H        -1.459198         3.470675         2.486631
 H        -2.914583         0.025558         3.016121
 H        -0.080020         0.041541         2.840763
 H        -1.094468        -1.237637         2.098745
