19
Iteration:  4711charge 0 multiplicity 1
 O         0.681379         0.119899         0.118403
 C        -0.564096         0.378742         0.722168
 C        -1.888169         0.038510        -0.049487
 C        -2.454025         1.083757         0.976341
 C        -1.091340         1.886765         0.966961
 C        -1.256226         2.688735         2.308691
 O        -1.867874         1.620237         3.211944
 C        -2.066744         0.514822         2.417886
 C        -0.827994        -0.314864         2.109101
 H         0.874375         0.849703        -0.378670
 H        -1.977658         0.352849        -1.050158
 H        -2.306906        -0.954840         0.094079
 H        -3.464869         1.527365         0.927218
 H        -1.125489         2.477419        -0.037306
 H        -0.334614         3.053175         2.790072
 H        -1.926624         3.447192         2.199442
 H        -2.929041        -0.074782         2.882230
 H        -0.013840         0.050030         2.802076
 H        -0.915405        -1.391471         2.082250
