19
Iteration:  4677charge 0 multiplicity 1
 O         0.747920         0.281695         0.288842
 C        -0.549029         0.453094         0.725198
 C        -1.843638         0.085986        -0.069196
 C        -2.624326         0.986977         0.941089
 C        -1.293797         1.845082         0.866394
 C        -1.063433         2.571733         2.208940
 O        -1.760626         1.606715         3.233119
 C        -2.135657         0.506489         2.503909
 C        -0.915832        -0.290451         2.071710
 H         0.795402         0.143151        -0.638867
 H        -1.879447         0.463356        -1.053413
 H        -2.113733        -0.919263        -0.111016
 H        -3.569213         1.535671         0.814315
 H        -1.275304         2.515047        -0.056576
 H        -0.040337         2.622428         2.588803
 H        -1.509608         3.448922         2.346152
 H        -2.937022         0.095828         3.101580
 H        -0.032127        -0.146280         2.747449
 H        -1.015126        -1.375014         1.957559
