19
Iteration:  3903
 O         0.644990         0.196744         0.104298
 C        -0.563637         0.450861         0.747558
 C        -1.817572         0.012900        -0.006870
 C        -2.500690         0.996941         0.995659
 C        -1.281164         1.924685         0.900478
 C        -1.004972         2.552658         2.290625
 O        -1.856953         1.652993         3.123362
 C        -2.174390         0.484589         2.397782
 C        -0.887241        -0.242643         2.192342
 H         1.305390         1.004495         0.282178
 H        -1.818545         0.247418        -1.078350
 H        -1.961479        -1.145413         0.209936
 H        -3.513063         1.386737         0.749208
 H        -1.199908         2.580739        -0.082561
 H         0.020704         2.635881         2.737961
 H        -1.390321         3.611867         2.374592
 H        -2.908127        -0.148450         2.916310
 H        -0.120345        -0.112540         2.924652
 H        -1.164025        -1.314198         2.121879
