19
Iteration:   195
 O         0.793019         0.235744         0.246014
 C        -0.568205         0.373365         0.726645
 C        -1.892896         0.046859        -0.082905
 C        -2.642373         0.980222         1.006140
 C        -1.210041         1.790260         0.928150
 C        -0.983191         2.564054         2.277856
 O        -1.832689         1.780103         3.158823
 C        -2.233113         0.541171         2.435351
 C        -0.913151        -0.343647         2.058278
 H         1.167437         1.059215         0.213810
 H        -1.777150         0.456381        -1.051901
 H        -2.198162        -1.076256        -0.148063
 H        -3.554788         1.436922         0.692704
 H        -1.130183         2.326153        -0.006754
 H         0.054853         2.537147         2.661333
 H        -1.333762         3.594301         2.296239
 H        -2.869451         0.087308         3.152224
 H        -0.150701        -0.239400         2.841620
 H        -1.150921        -1.358620         1.694814
