19
Iteration:  4452
 O         0.688583         0.107343         0.174533
 C        -0.523885         0.521813         0.758349
 C        -1.797013         0.080954        -0.017599
 C        -2.501871         1.007046         0.991519
 C        -1.254722         1.925535         0.902807
 C        -1.113466         2.591329         2.277555
 O        -1.894660         1.676340         3.198445
 C        -2.117198         0.392425         2.435945
 C        -0.843842        -0.222413         2.071410
 H         0.518507         0.499869        -0.630135
 H        -2.003734         0.343360        -1.060484
 H        -2.139634        -1.013469        -0.030611
 H        -3.515039         1.288168         0.873463
 H        -1.168164         2.753323         0.116411
 H        -0.094156         2.576001         2.707872
 H        -1.649715         3.554920         2.225371
 H        -2.822856        -0.224577         3.013289
 H        -0.112125        -0.053656         2.952877
 H        -0.781737        -1.319507         1.843929
