19
Iteration:  2859charge 0 multiplicity 1
 O         0.558480         0.232343         0.044493
 C        -0.560799         0.453483         0.795157
 C        -1.796655        -0.090732         0.057358
 C        -2.479513         0.989115         0.952061
 C        -1.214784         1.890238         0.921420
 C        -1.147852         2.572955         2.286693
 O        -1.831094         1.729081         3.139654
 C        -2.135656         0.492018         2.371111
 C        -0.829885        -0.226315         2.213355
 H         1.433195         0.727014         0.257990
 H        -1.768936         0.046000        -1.019361
 H        -1.917719        -1.166349         0.213988
 H        -3.534970         1.301863         0.794153
 H        -1.159537         2.463100         0.045635
 H        -0.015483         2.674459         2.564555
 H        -1.641455         3.565423         2.109436
 H        -3.051050        -0.130161         2.841331
 H         0.066329        -0.029527         2.928772
 H        -0.966198        -1.295732         2.161727
