19
Iteration:  1324charge 0 multiplicity 1
 O         0.659316         0.233926         0.002312
 C        -0.556947         0.382844         0.762097
 C        -1.842775         0.002783         0.000120
 C        -2.543441         1.022515         0.998840
 C        -1.166852         1.865158         0.955390
 C        -1.074244         2.477765         2.331057
 O        -1.933977         1.759431         3.146004
 C        -2.212635         0.509311         2.408316
 C        -0.782249        -0.211949         2.110537
 H         1.425846         0.222322         0.651306
 H        -1.941251         0.369450        -1.024848
 H        -2.037487        -1.161493         0.019515
 H        -3.559600         1.334902         0.895589
 H        -0.862235         2.647316         0.220453
 H         0.013789         2.549713         2.750144
 H        -1.424780         3.463441         2.424445
 H        -2.926651        -0.065573         2.974455
 H        -0.077803        -0.003449         2.865105
 H        -0.966373        -1.322113         2.057815
