19
Iteration:  3895
 O         0.681620         0.204948         0.102666
 C        -0.575579         0.412898         0.763193
 C        -1.865760         0.049802        -0.038747
 C        -2.519596         1.034193         0.948400
 C        -1.293697         1.880766         0.968459
 C        -1.054191         2.600294         2.298902
 O        -1.838933         1.678096         3.088514
 C        -2.107708         0.504241         2.408833
 C        -0.879515        -0.306983         2.212347
 H         1.418596         0.747534         0.676936
 H        -1.880461         0.329039        -1.138509
 H        -2.270670        -1.077304        -0.127046
 H        -3.601385         1.210710         0.754373
 H        -1.206798         2.410035        -0.061476
 H         0.022272         2.563250         2.753648
 H        -1.582728         3.508500         2.307709
 H        -2.764655        -0.019044         3.118734
 H         0.020895         0.010284         2.765413
 H        -0.981297        -1.408225         2.162992
