19
Iteration:  1739
 O         0.672584         0.256480         0.202224
 C        -0.602676         0.396104         0.665271
 C        -1.893270         0.007171        -0.026944
 C        -2.567206         0.941602         1.022167
 C        -1.298123         1.874459         0.865641
 C        -1.007311         2.531881         2.271177
 O        -1.874280         1.812157         3.142133
 C        -2.104249         0.406112         2.437718
 C        -0.797554        -0.269459         2.132132
 H         1.252543         1.099141         0.475995
 H        -1.805126         0.285284        -1.066371
 H        -2.265383        -1.038218        -0.039309
 H        -3.586852         1.438406         0.788684
 H        -1.238956         2.471978        -0.070379
 H         0.054126         2.381814         2.592036
 H        -1.131459         3.691753         2.326358
 H        -2.839207        -0.111066         3.178212
 H        -0.059043        -0.034680         2.870840
 H        -0.808083        -1.431625         2.039693
