19
Iteration:  1445charge 0 multiplicity 1
 O         0.734389         0.253642         0.227829
 C        -0.603955         0.449348         0.701207
 C        -1.921625         0.046495        -0.003889
 C        -2.568162         1.018609         1.029240
 C        -1.293234         1.884735         0.870491
 C        -1.015769         2.501799         2.259248
 O        -1.864495         1.619093         3.145329
 C        -2.113295         0.517999         2.394414
 C        -0.810548        -0.188877         2.048069
 H         1.340345         0.090865         0.977801
 H        -2.032665         0.459040        -0.954081
 H        -2.253988        -1.070588        -0.203177
 H        -3.569441         1.431006         0.861056
 H        -1.163223         2.268452        -0.125986
 H         0.062027         2.674377         2.593083
 H        -1.490222         3.396106         2.420556
 H        -2.743603        -0.165548         3.032633
 H        -0.111254        -0.007136         2.789367
 H        -0.932101        -1.292302         2.062169
