19
Iteration:  4598
 O         0.627292         0.111545         0.059805
 C        -0.546128         0.427667         0.700345
 C        -1.757313         0.062801        -0.016170
 C        -2.494171         1.044219         0.953249
 C        -1.180227         1.876793         1.045660
 C        -1.148979         2.588246         2.352494
 O        -1.909867         1.673829         3.212254
 C        -2.159450         0.452441         2.404418
 C        -0.812017        -0.210294         2.087758
 H         0.947023         0.964771        -0.369183
 H        -1.922220         0.399953        -1.035896
 H        -2.055975        -0.892135         0.145612
 H        -3.597217         1.267102         0.744037
 H        -1.028004         2.545287         0.206728
 H        -0.138041         2.667939         2.712957
 H        -1.520748         3.573855         2.331106
 H        -2.926730        -0.164770         2.899291
 H        -0.005178        -0.004567         2.767569
 H        -0.947352        -1.326641         1.927519
