19
Iteration:   896
 O         0.686546         0.123772         0.037260
 C        -0.588566         0.420920         0.698014
 C        -1.826270         0.016460         0.036182
 C        -2.449426         1.058507         1.011521
 C        -1.172752         1.912657         0.867536
 C        -1.079293         2.472894         2.329915
 O        -1.935649         1.706270         3.210925
 C        -2.202920         0.526023         2.427389
 C        -0.859489        -0.228753         2.114958
 H         1.403392         0.791571         0.481788
 H        -1.719129         0.475565        -1.057011
 H        -2.107564        -1.032658        -0.134911
 H        -3.361259         1.617940         0.945845
 H        -1.386727         2.559307         0.003651
 H        -0.013353         2.508560         2.801570
 H        -1.459970         3.456016         2.315634
 H        -3.016873         0.044033         2.974001
 H        -0.170578        -0.027945         2.983345
 H        -0.935255        -1.317943         1.898127
