19
Iteration:  1405
 O         0.669864         0.321273         0.038423
 C        -0.553149         0.396685         0.775607
 C        -1.808276        -0.001771        -0.017201
 C        -2.551864         0.980755         0.980968
 C        -1.172331         1.753597         0.895518
 C        -1.127529         2.619337         2.279438
 O        -1.787441         1.639432         3.212626
 C        -2.148873         0.577587         2.449104
 C        -0.961098        -0.264855         2.102022
 H         1.343584         0.150493         0.771532
 H        -1.794817         0.492464        -1.022610
 H        -1.848474        -1.100766        -0.097146
 H        -3.583598         1.452917         0.880101
 H        -0.966798         2.419633         0.066815
 H        -0.161113         2.755680         2.736213
 H        -1.769917         3.638209         2.296699
 H        -3.053658         0.086866         2.927149
 H        -0.130284        -0.151671         2.916615
 H        -1.169279        -1.344819         1.930227
