19
Iteration:  1384
 O         0.708937         0.219446         0.052602
 C        -0.524969         0.403827         0.732417
 C        -1.911767         0.037516        -0.006564
 C        -2.446281         1.065039         0.976220
 C        -1.220020         1.861202         0.932958
 C        -1.088454         2.553740         2.302611
 O        -1.908522         1.725051         3.186428
 C        -2.169237         0.445418         2.430554
 C        -0.820360        -0.307921         2.118265
 H         1.333419         0.392532         0.691547
 H        -2.015545         0.522803        -1.015671
 H        -2.319289        -0.929716         0.067496
 H        -3.488209         1.444263         0.763210
 H        -1.158634         2.557517         0.081179
 H        -0.102646         2.836485         2.584083
 H        -1.838819         3.464422         2.198612
 H        -2.917323        -0.177846         2.975420
 H        -0.124523        -0.014645         3.002670
 H        -0.893512        -1.409572         1.997533
