19
Iteration:  4721charge 0 multiplicity 1
 O         0.724991         0.066102         0.049583
 C        -0.589567         0.385176         0.729867
 C        -1.881202         0.006672        -0.030767
 C        -2.473243         1.111951         0.979662
 C        -1.153178         1.902822         0.931058
 C        -1.238764         2.597472         2.351594
 O        -1.892575         1.680708         3.249978
 C        -2.179858         0.521468         2.454652
 C        -0.748535        -0.247605         2.074693
 H         1.013439         0.859822        -0.288044
 H        -1.699319         0.294248        -1.007580
 H        -2.165340        -0.986300        -0.035831
 H        -3.437979         1.604894         0.749778
 H        -0.942205         2.615005         0.038439
 H        -0.302576         2.958024         2.814478
 H        -1.894890         3.420085         2.201950
 H        -2.840171        -0.144179         3.037459
 H         0.035627        -0.079880         2.877722
 H        -0.807504        -1.328754         1.945656
