19
Iteration:   745charge 0 multiplicity 1
 O         0.630522         0.261217         0.115629
 C        -0.577246         0.429030         0.823265
 C        -1.825201        -0.000748         0.033627
 C        -2.515906         1.062962         0.983771
 C        -1.217860         1.826891         0.960436
 C        -1.016754         2.494420         2.304155
 O        -1.931375         1.728607         3.090196
 C        -2.180651         0.549638         2.410965
 C        -0.776178        -0.260154         2.084924
 H         0.850991        -0.702019        -0.294088
 H        -1.585556         0.516618        -0.899274
 H        -2.062483        -1.051972         0.050917
 H        -3.456950         1.511080         0.843420
 H        -0.999573         2.572328         0.201130
 H        -0.010818         2.492402         2.752312
 H        -1.557056         3.545290         2.347250
 H        -3.011644         0.052244         2.795191
 H         0.086400        -0.155062         2.784050
 H        -1.020442        -1.329145         1.925683
