19
Iteration:   778charge 0 multiplicity 1
 O         0.798640         0.328841         0.219360
 C        -0.585656         0.329673         0.688598
 C        -1.887361         0.043269        -0.020894
 C        -2.543577         1.032821         1.052944
 C        -1.262531         1.772240         0.938993
 C        -1.011259         2.502994         2.278320
 O        -1.823467         1.697234         3.153963
 C        -2.266233         0.552621         2.426726
 C        -0.912772        -0.225383         2.056458
 H         1.009582        -0.528443        -0.229755
 H        -1.995582         0.445695        -1.032390
 H        -2.051169        -1.038734        -0.164389
 H        -3.450188         1.577020         0.891188
 H        -1.208240         2.450355         0.069061
 H         0.048082         2.634130         2.552251
 H        -1.347334         3.577155         2.190110
 H        -3.037010         0.006989         2.873253
 H        -0.075733         0.178193         2.652672
 H        -0.756051        -1.308267         2.190723
