19
Iteration:  3453
 O         0.673930         0.221744         0.139557
 C        -0.537525         0.456902         0.766071
 C        -1.831125        -0.084379        -0.039577
 C        -2.557355         0.908683         0.953997
 C        -1.285714         1.865331         0.857243
 C        -1.211186         2.637861         2.202141
 O        -1.776270         1.740751         3.164742
 C        -2.130989         0.508604         2.523835
 C        -0.813810        -0.182367         2.145206
 H         1.294712        -0.384975         0.611578
 H        -1.758863         0.187543        -1.183650
 H        -2.093472        -1.182990         0.100793
 H        -3.525270         1.502273         0.915244
 H        -1.133233         2.374073         0.008099
 H        -0.250454         3.005940         2.635243
 H        -1.831358         3.534733         2.050610
 H        -2.728968        -0.056536         3.300216
 H        -0.027301         0.102116         2.936552
 H        -0.790750        -1.299069         1.859382
