19
Iteration:  3173charge 0 multiplicity 1
 O         0.629995         0.135827         0.083399
 C        -0.577254         0.405046         0.784679
 C        -1.794917        -0.053167        -0.008306
 C        -2.498472         0.996524         0.906754
 C        -1.284181         1.907075         0.920862
 C        -1.225830         2.644066         2.258822
 O        -1.808496         1.711555         3.188963
 C        -2.152303         0.472760         2.458333
 C        -0.737692        -0.181970         2.130821
 H         1.311599         0.279321         0.691079
 H        -1.868647         0.317385        -1.054203
 H        -2.106057        -1.131431         0.195321
 H        -3.574017         1.297864         0.803587
 H        -0.996130         2.562080        -0.031678
 H        -0.149189         2.938791         2.522245
 H        -1.699312         3.579722         2.198352
 H        -2.975033        -0.095460         2.977879
 H        -0.140070         0.191117         2.944910
 H        -0.595672        -1.278732         1.980553
