19
Iteration:  4637charge 0 multiplicity 1
 O         0.749765         0.421853         0.276412
 C        -0.642498         0.423101         0.702638
 C        -1.952258         0.086091        -0.000087
 C        -2.553734         1.000105         0.992398
 C        -1.240424         1.821457         0.914936
 C        -0.892451         2.365078         2.264336
 O        -1.946032         1.682708         3.114592
 C        -2.173122         0.479682         2.428853
 C        -0.808342        -0.230027         2.095700
 H         0.841033         0.323546        -0.765610
 H        -2.038672         0.295686        -1.101867
 H        -2.159022        -1.103163         0.228238
 H        -3.508838         1.476377         0.771413
 H        -1.081964         2.338567        -0.074261
 H         0.179874         2.150767         2.529299
 H        -1.007262         3.572621         2.448119
 H        -2.816694        -0.256634         3.013249
 H        -0.012613         0.008930         2.837064
 H        -0.999528        -1.310732         2.092973
