19
Iteration:  1999
 O         0.691611         0.366764         0.149985
 C        -0.567011         0.404438         0.691175
 C        -1.940846        -0.011367         0.055911
 C        -2.541956         0.922989         1.049300
 C        -1.261715         1.812238         0.877703
 C        -1.013597         2.495795         2.181692
 O        -1.915070         1.771846         3.100064
 C        -2.117695         0.486065         2.444093
 C        -0.786942        -0.191377         2.168906
 H         1.142578        -0.485603         0.569515
 H        -2.140198         0.360676        -0.997434
 H        -2.073275        -1.083933         0.068308
 H        -3.582477         1.262658         1.061886
 H        -1.218754         2.415556        -0.001076
 H         0.048730         2.470635         2.397465
 H        -1.217087         3.690015         2.266329
 H        -2.811388        -0.190381         2.985759
 H         0.093769         0.161024         2.771703
 H        -0.807995        -1.326912         2.259384
