19
Iteration:  4282
 O         0.716357         0.090804         0.153782
 C        -0.524655         0.377290         0.722509
 C        -1.777782         0.089701        -0.074739
 C        -2.491666         0.981708         0.944240
 C        -1.294284         1.892349         0.972819
 C        -1.211015         2.668996         2.280655
 O        -1.813717         1.673991         3.239746
 C        -2.168290         0.436566         2.430326
 C        -0.820862        -0.216603         2.122757
 H         0.634730         0.385572        -0.703654
 H        -1.829917         0.643627        -1.105878
 H        -2.150091        -0.948961        -0.099232
 H        -3.459360         1.522108         0.689846
 H        -1.284973         2.528788         0.172648
 H        -0.178471         2.852065         2.652414
 H        -1.779249         3.715456         2.513183
 H        -2.973704        -0.027914         3.074662
 H        -0.062265         0.117671         2.773192
 H        -0.783844        -1.289572         1.973847
