19
Iteration:  4738
 O         0.671554         0.044324         0.024454
 C        -0.481297         0.468829         0.690018
 C        -1.794387         0.080097         0.011926
 C        -2.529873         0.984711         0.976278
 C        -1.219114         1.862855         0.994237
 C        -1.113645         2.510945         2.345431
 O        -1.957201         1.710547         3.244810
 C        -2.161060         0.522226         2.380841
 C        -0.793666        -0.145944         2.118100
 H         1.211477         0.740449        -0.150747
 H        -2.055108         0.514095        -1.040650
 H        -2.172601        -1.040348         0.067117
 H        -3.555066         1.333583         0.825424
 H        -1.230186         2.535537         0.162001
 H        -0.041394         2.459115         2.586691
 H        -1.484417         3.606213         2.279334
 H        -2.956243        -0.078038         2.800991
 H        -0.090071         0.207105         2.839292
 H        -0.834522        -1.261393         2.134814
