19
Iteration:  1215charge 0 multiplicity 1
 O         0.676982         0.286936        -0.005283
 C        -0.629161         0.403724         0.731715
 C        -1.852041        -0.016981        -0.004783
 C        -2.447994         1.043997         1.004273
 C        -1.097398         1.820854         0.920158
 C        -1.049576         2.469213         2.268306
 O        -1.956803         1.737597         3.228384
 C        -2.225396         0.514588         2.428256
 C        -0.835600        -0.261265         2.127882
 H         1.285097         0.306282         0.647283
 H        -1.914024         0.382313        -0.951001
 H        -2.161173        -1.074255         0.006335
 H        -3.435117         1.536107         0.932378
 H        -1.016744         2.533211         0.077544
 H        -0.063911         2.588246         2.735993
 H        -1.461721         3.507068         2.293959
 H        -3.011459        -0.110226         2.758998
 H        -0.235127         0.115514         2.912875
 H        -0.760662        -1.359298         2.311528
