19
Iteration:  4875charge 0 multiplicity 1
 O         0.649559         0.151338         0.049822
 C        -0.557244         0.388228         0.723638
 C        -1.853520        -0.057046         0.019429
 C        -2.473556         0.990611         0.959206
 C        -1.236125         1.919655         0.918962
 C        -1.097480         2.515247         2.304129
 O        -1.957850         1.771775         3.140712
 C        -2.133410         0.512471         2.453980
 C        -0.755917        -0.213892         2.130048
 H         1.314711         0.742959         0.518390
 H        -1.914693         0.133704        -1.012028
 H        -2.128990        -1.027123         0.246737
 H        -3.459080         1.506982         0.950045
 H        -1.183348         2.715741         0.076628
 H        -0.013274         2.523608         2.660342
 H        -1.533577         3.618905         2.382304
 H        -3.004681        -0.047117         2.965110
 H         0.042656         0.205279         2.820150
 H        -0.799097        -1.305016         2.234955
