19
Iteration:  2096
 O         0.684725         0.210342         0.036805
 C        -0.545661         0.449443         0.706995
 C        -1.803757        -0.066032         0.040510
 C        -2.564690         0.938632         1.012005
 C        -1.282702         1.876993         0.934197
 C        -1.129622         2.594854         2.213938
 O        -1.839592         1.733489         3.191084
 C        -2.140019         0.523688         2.473549
 C        -0.819764        -0.138532         2.143666
 H         0.941091        -0.713986         0.501219
 H        -1.872942         0.350861        -1.032976
 H        -2.036377        -1.091930         0.062118
 H        -3.462598         1.265752         0.569779
 H        -1.210180         2.343462        -0.003864
 H        -0.104953         2.577354         2.568395
 H        -1.485025         3.627869         2.273872
 H        -2.700905        -0.142322         3.142396
 H        -0.163230         0.276445         2.942506
 H        -0.887075        -1.229293         2.041918
