19
Iteration:  1519
 O         0.663149         0.165001         0.003700
 C        -0.540720         0.310874         0.695375
 C        -1.860039         0.003165        -0.037291
 C        -2.488950         1.032851         0.937988
 C        -1.131400         1.907393         0.955681
 C        -1.129320         2.606514         2.339376
 O        -1.942579         1.660053         3.238017
 C        -2.167515         0.514034         2.451560
 C        -0.804549        -0.175683         2.140482
 H         1.341786         0.545293         0.454967
 H        -1.796639         0.318347        -1.073470
 H        -2.221127        -1.016158        -0.010520
 H        -3.451885         1.512302         0.829627
 H        -1.135450         2.665171         0.162348
 H        -0.159730         2.725089         2.821265
 H        -1.708931         3.645192         2.266360
 H        -2.853972        -0.183297         2.933247
 H         0.071950        -0.025417         2.823480
 H        -1.041881        -1.276465         2.135312
