19
Iteration:  4183
 O         0.771624         0.251750         0.234577
 C        -0.525161         0.411626         0.724536
 C        -1.983037         0.018330         0.013848
 C        -2.569323         1.029594         0.995847
 C        -1.221797         1.802928         0.958027
 C        -1.093532         2.465166         2.244538
 O        -1.870609         1.696809         3.160682
 C        -2.175648         0.548064         2.409000
 C        -0.754925        -0.240345         2.038564
 H         1.029156         1.044141        -0.242178
 H        -2.049083         0.475656        -1.048115
 H        -2.284251        -1.033004         0.091893
 H        -3.562964         1.252614         0.595815
 H        -1.108622         2.390664         0.126139
 H        -0.024530         2.501508         2.561972
 H        -1.402807         3.498501         2.211208
 H        -2.975424         0.046401         3.004922
 H         0.019598        -0.014572         2.746598
 H        -1.066923        -1.260611         2.034585
