19
Iteration:  2938
 O         0.692742         0.347635         0.082891
 C        -0.560129         0.474466         0.702381
 C        -1.828171        -0.140893         0.000242
 C        -2.551299         0.948488         0.993420
 C        -1.313184         1.858649         0.884963
 C        -1.050107         2.536804         2.221678
 O        -1.840629         1.731391         3.205614
 C        -2.178359         0.539678         2.435177
 C        -0.818825        -0.228346         2.176020
 H         1.261757        -0.373085         0.615166
 H        -2.038756         0.038158        -1.031390
 H        -2.100181        -1.171641         0.249273
 H        -3.559934         1.463859         0.844241
 H        -1.186310         2.499119        -0.005677
 H         0.031447         2.460276         2.578477
 H        -1.253190         3.571688         2.137236
 H        -3.080210        -0.020713         2.876273
 H        -0.121526         0.169899         3.022179
 H        -0.880927        -1.252914         2.139824
