19
Iteration:  4371charge 0 multiplicity 1
 O         0.708379         0.305926         0.232952
 C        -0.556620         0.480658         0.640460
 C        -1.797431        -0.042388        -0.057653
 C        -2.599914         0.938181         0.984843
 C        -1.305492         1.916418         0.891016
 C        -0.996388         2.429285         2.341900
 O        -1.845715         1.735617         3.153987
 C        -2.188332         0.500158         2.453443
 C        -0.847695        -0.273420         2.156713
 H         0.719507         0.436695        -0.670671
 H        -1.913368         0.434443        -1.076630
 H        -1.942380        -1.152607         0.019461
 H        -3.664173         1.317030         0.921335
 H        -1.362025         2.684417         0.178403
 H         0.067547         2.296730         2.446589
 H        -1.027946         3.608457         2.455782
 H        -3.117561         0.132939         2.879396
 H        -0.096958         0.030187         2.847480
 H        -0.855692        -1.332583         1.899617
