19
Iteration:  2664charge 0 multiplicity 1
 O         0.667531         0.430192         0.057450
 C        -0.533054         0.383092         0.770225
 C        -1.932610        -0.109150         0.100869
 C        -2.521084         0.988233         1.051302
 C        -1.191647         1.767543         0.919286
 C        -1.053390         2.584254         2.188153
 O        -1.931428         1.730047         3.104369
 C        -2.144004         0.519738         2.449891
 C        -0.757778        -0.238645         2.097058
 H         1.173402        -0.213162         0.468705
 H        -1.825307         0.041604        -0.951588
 H        -2.314578        -1.090741         0.374376
 H        -3.526280         1.411797         0.792538
 H        -1.127760         2.190856        -0.036897
 H        -0.043872         2.721739         2.598900
 H        -1.611097         3.585150         2.189012
 H        -2.936246        -0.063105         3.050013
 H        -0.099792        -0.066031         3.007206
 H        -0.758941        -1.305098         2.003111
