19
Iteration:  4650charge 0 multiplicity 1
 O         0.713813         0.401256         0.336306
 C        -0.601392         0.487480         0.715913
 C        -1.884316        -0.054381        -0.055269
 C        -2.642776         0.968227         1.004820
 C        -1.279181         1.863576         0.900724
 C        -0.879460         2.405623         2.300500
 O        -1.839635         1.724379         3.127691
 C        -2.186043         0.475310         2.409431
 C        -0.846915        -0.253563         2.017997
 H         0.751911         0.085251        -0.517761
 H        -1.929649         0.437168        -1.086046
 H        -2.202454        -1.185765        -0.131635
 H        -3.653604         1.435832         0.947063
 H        -1.270803         2.617090         0.139490
 H         0.108799         2.059888         2.658773
 H        -1.060500         3.630503         2.451742
 H        -3.022217         0.080213         3.066262
 H        -0.063588         0.003815         2.727052
 H        -0.697540        -1.368428         1.812155
