19
Iteration:  1705
 O         0.702494         0.196970         0.163412
 C        -0.588151         0.432163         0.684064
 C        -1.864616        -0.004019         0.009213
 C        -2.531777         1.002765         0.979930
 C        -1.230004         1.830284         0.877883
 C        -1.081309         2.507561         2.264846
 O        -1.840030         1.740482         3.243057
 C        -2.180591         0.451515         2.414057
 C        -0.832230        -0.184520         2.135339
 H         0.952667         1.002821        -0.347293
 H        -1.786790         0.393166        -1.057776
 H        -2.020761        -1.070742         0.169418
 H        -3.500874         1.488043         0.641342
 H        -1.211960         2.476654        -0.031199
 H         0.004087         2.578173         2.566270
 H        -1.568864         3.526780         2.268058
 H        -2.930213        -0.147556         3.063178
 H        -0.169214         0.133294         2.904930
 H        -0.757691        -1.307653         1.954715
