19
Iteration:  4617charge 0 multiplicity 1
 O         0.741021         0.308328         0.132167
 C        -0.525680         0.398707         0.724090
 C        -1.956136        -0.026320        -0.011171
 C        -2.514741         1.006844         0.975145
 C        -1.167392         1.830850         0.892766
 C        -1.040568         2.449159         2.372757
 O        -1.939864         1.690610         3.174869
 C        -2.191689         0.538557         2.409217
 C        -0.794939        -0.263007         2.120849
 H         0.562673         0.890510        -0.717154
 H        -1.862858         0.444793        -1.024486
 H        -2.367975        -1.066118        -0.099774
 H        -3.376146         1.687370         1.022045
 H        -1.008133         2.623378         0.162709
 H        -0.061696         2.455022         2.877266
 H        -1.323714         3.639558         2.269121
 H        -3.055605        -0.071575         2.825842
 H        -0.130916         0.093299         2.914906
 H        -0.792651        -1.396214         2.069572
