19
Iteration:  2676charge 0 multiplicity 1
 O         0.642017         0.438654         0.126378
 C        -0.619692         0.385669         0.722959
 C        -1.931200        -0.117578         0.120001
 C        -2.479815         0.951323         0.969154
 C        -1.194833         1.819673         0.903161
 C        -1.089429         2.489030         2.240197
 O        -1.885414         1.779342         3.097743
 C        -2.111416         0.466224         2.369138
 C        -0.752691        -0.210243         2.175810
 H         1.270912        -0.321827         0.267395
 H        -2.246867         0.099771        -0.860883
 H        -2.246983        -1.168898         0.305983
 H        -3.496745         1.477852         0.892443
 H        -1.001164         2.547337         0.189520
 H        -0.065157         2.571020         2.591954
 H        -1.450902         3.614406         2.015337
 H        -2.781134        -0.179524         2.993885
 H         0.104185         0.274631         2.741621
 H        -0.939744        -1.296270         2.279144
