19
Iteration:  2916
 O         0.672403         0.168561         0.152014
 C        -0.570704         0.458820         0.731973
 C        -1.878329         0.014777         0.058542
 C        -2.569433         0.956300         1.014970
 C        -1.289375         1.896844         0.868165
 C        -1.144837         2.567548         2.238769
 O        -1.841955         1.682970         3.116557
 C        -2.107323         0.471859         2.428632
 C        -0.740273        -0.127026         2.120338
 H         1.234069        -0.202862         0.762216
 H        -1.825165         0.442264        -0.916476
 H        -2.156010        -1.058454         0.018491
 H        -3.621238         1.319040         0.768804
 H        -1.285009         2.431050        -0.082721
 H        -0.049941         2.650785         2.601952
 H        -1.480742         3.586148         2.203280
 H        -2.803263        -0.225365         3.050344
 H         0.158823         0.235438         2.725950
 H        -0.753096        -1.164620         2.044075
