19
Iteration:  2619
 O         0.671279         0.183024         0.177283
 C        -0.603733         0.489496         0.734900
 C        -1.871817        -0.038313        -0.041679
 C        -2.619429         0.892812         1.038629
 C        -1.296575         1.876108         0.852551
 C        -1.156211         2.627106         2.221141
 O        -1.803771         1.712795         3.176371
 C        -2.099658         0.470179         2.428832
 C        -0.717137        -0.174772         2.103016
 H         1.286599        -0.055164         0.848068
 H        -1.900728         0.502551        -1.000773
 H        -1.966688        -1.071405        -0.100488
 H        -3.580741         1.398504         0.916737
 H        -1.248417         2.458055        -0.080921
 H        -0.109435         2.798211         2.600730
 H        -1.708475         3.618668         2.219848
 H        -2.816561        -0.132450         3.131493
 H         0.221179         0.152251         2.676474
 H        -0.580511        -1.208811         2.091790
