19
Iteration:  2957charge 0 multiplicity 1
 O         0.663542         0.500649         0.119596
 C        -0.598387         0.316617         0.776038
 C        -1.903119        -0.077607         0.081813
 C        -2.523385         0.913673         0.977424
 C        -1.180226         1.746988         0.861262
 C        -0.997206         2.473510         2.231343
 O        -1.912000         1.798712         3.100241
 C        -2.136776         0.542860         2.490715
 C        -0.812836        -0.211571         2.102340
 H         1.260056        -0.348506         0.233826
 H        -1.930445         0.206591        -0.950732
 H        -2.242919        -1.096988         0.019754
 H        -3.556516         1.311816         0.844371
 H        -1.012262         2.357686         0.061133
 H         0.019834         2.545220         2.496971
 H        -1.461923         3.558042         2.371278
 H        -2.861938        -0.055930         3.185472
 H        -0.171840         0.063502         2.988706
 H        -1.138740        -1.265600         1.989156
