19
Iteration:  2169charge 0 multiplicity 1
 O         0.622319         0.341808         0.022950
 C        -0.496641         0.387045         0.802310
 C        -1.831692        -0.033073         0.091169
 C        -2.487570         0.934637         0.978540
 C        -1.274119         1.845786         0.884326
 C        -1.109010         2.601145         2.175498
 O        -1.826295         1.721475         3.136767
 C        -2.124849         0.518003         2.481654
 C        -0.916436        -0.285301         2.187112
 H         1.469765         0.096747         0.568877
 H        -1.816294         0.296135        -0.994501
 H        -2.086591        -1.173066         0.075774
 H        -3.495778         1.399523         0.802064
 H        -1.172134         2.302060        -0.147798
 H         0.015148         2.673850         2.455189
 H        -1.562297         3.578992         2.396020
 H        -2.915659         0.128510         3.129732
 H        -0.047622        -0.092264         2.894700
 H        -1.138137        -1.330425         2.064778
