19
Iteration:   390
 O         0.753797         0.181048         0.097173
 C        -0.592598         0.406763         0.673731
 C        -1.881452         0.031882        -0.085837
 C        -2.499855         1.079059         0.961749
 C        -1.156295         1.876511         0.959634
 C        -1.046147         2.532850         2.343256
 O        -1.876622         1.697811         3.215919
 C        -2.226427         0.482214         2.384415
 C        -0.888347        -0.238923         2.121825
 H         1.222889         0.062682         0.883986
 H        -2.020377         0.107405        -1.097373
 H        -2.165533        -1.021988         0.216013
 H        -3.446795         1.564871         0.787501
 H        -1.166863         2.523484         0.099986
 H         0.030964         2.686516         2.609804
 H        -1.636389         3.612227         2.247276
 H        -3.126732         0.024897         2.685886
 H        -0.238039         0.158288         2.897861
 H        -0.885475        -1.319308         2.361064
