19
Iteration:  1392
 O         0.731434         0.261704         0.037657
 C        -0.547797         0.395831         0.705648
 C        -1.890317         0.034388        -0.042891
 C        -2.493456         1.010709         1.013169
 C        -1.146810         1.914411         0.936996
 C        -1.200107         2.511180         2.254978
 O        -1.847496         1.698806         3.206357
 C        -2.188811         0.504120         2.429361
 C        -0.849046        -0.295228         2.179487
 H         1.469667         0.318571         0.630417
 H        -1.919208         0.361329        -1.048564
 H        -2.357313        -1.028735         0.061831
 H        -3.457774         1.530885         0.884438
 H        -0.988637         2.490097         0.048939
 H        -0.144362         2.703385         2.606120
 H        -1.627880         3.542868         2.167207
 H        -2.967962        -0.073877         3.028561
 H        -0.075933        -0.239070         2.956601
 H        -1.169742        -1.371082         2.047157
