19
Iteration:   147charge 0 multiplicity 1
 O         0.757560         0.117323         0.177325
 C        -0.529436         0.386413         0.695279
 C        -1.834931         0.001911        -0.019181
 C        -2.522427         1.079847         0.927921
 C        -1.250835         1.870353         0.992243
 C        -1.037714         2.474222         2.332703
 O        -1.891591         1.723440         3.242461
 C        -2.280397         0.538176         2.369153
 C        -0.828351        -0.189490         2.087589
 H         0.781220         0.480867        -0.829528
 H        -1.835913         0.388264        -1.109769
 H        -2.174647        -1.029289         0.058312
 H        -3.444658         1.612497         0.542913
 H        -1.176467         2.621439         0.149080
 H         0.024609         2.408432         2.750726
 H        -1.373846         3.444014         2.424035
 H        -3.166735         0.066857         2.876940
 H        -0.179059         0.411633         2.728307
 H        -0.792735        -1.294602         2.086441
