19
Iteration:  3891charge 0 multiplicity 1
 O         0.698317         0.218894         0.117442
 C        -0.585994         0.380233         0.762366
 C        -1.882131         0.054914        -0.057430
 C        -2.547298         1.012728         0.935675
 C        -1.259387         1.863759         0.971933
 C        -1.092750         2.587013         2.291957
 O        -1.832080         1.711081         3.104391
 C        -2.103058         0.503405         2.428703
 C        -0.837115        -0.318564         2.174313
 H         1.327727         0.533604         0.704793
 H        -1.870818         0.490496        -1.062161
 H        -2.342919        -0.991982        -0.133938
 H        -3.604729         1.294232         0.844215
 H        -1.135269         2.429240        -0.005467
 H        -0.049796         2.615677         2.615468
 H        -1.613798         3.601477         2.336251
 H        -2.856913         0.065542         3.096036
 H        -0.046179        -0.000809         2.832298
 H        -0.868077        -1.414658         2.140642
