19
Iteration:  3333charge 0 multiplicity 1
 O         0.634772         0.234052         0.050212
 C        -0.548231         0.399069         0.765938
 C        -1.835517        -0.062982         0.022150
 C        -2.522947         1.011467         0.956627
 C        -1.255677         1.869182         0.847974
 C        -1.164412         2.621509         2.173703
 O        -1.858514         1.708725         3.184229
 C        -2.127218         0.500092         2.469872
 C        -0.712214        -0.233640         2.229505
 H         1.263648        -0.099006         0.676438
 H        -1.843922         0.188302        -1.085928
 H        -2.214302        -1.054868         0.239419
 H        -3.604345         1.323072         0.904616
 H        -1.034762         2.493570         0.057603
 H        -0.213091         2.988860         2.537839
 H        -1.801368         3.601245         2.131059
 H        -3.002291         0.018673         2.948580
 H         0.087327         0.044586         2.991648
 H        -0.955729        -1.337563         2.264229
