19
Iteration:  1599
 O         0.743032         0.439262         0.112445
 C        -0.558355         0.403297         0.694026
 C        -1.952925        -0.050277         0.017513
 C        -2.475802         0.990619         0.989983
 C        -1.191491         1.767397         0.868375
 C        -1.000686         2.449369         2.284224
 O        -1.884154         1.719260         3.186214
 C        -2.178447         0.524131         2.427441
 C        -0.906566        -0.233598         2.104310
 H         1.224424        -0.129163         0.615715
 H        -2.103821         0.319159        -1.001731
 H        -2.478063        -1.091444         0.057382
 H        -3.450649         1.597822         0.884675
 H        -0.896811         2.422588         0.030909
 H        -0.053946         2.628154         2.888494
 H        -1.526005         3.467133         2.212440
 H        -2.970213        -0.096243         2.989755
 H        -0.140956         0.001736         2.815696
 H        -1.065796        -1.353663         2.104827
