19
Iteration:  2924
 O         0.687195         0.208471         0.127659
 C        -0.564795         0.455449         0.749713
 C        -1.893926        -0.007790         0.043658
 C        -2.529148         0.961507         0.990837
 C        -1.298893         1.897810         0.863941
 C        -1.075553         2.543121         2.198064
 O        -1.850005         1.727912         3.177982
 C        -2.157977         0.435892         2.391643
 C        -0.772298        -0.126158         2.117471
 H         1.169422        -0.257331         0.725053
 H        -1.830880         0.320132        -0.993708
 H        -2.016155        -1.050527         0.230838
 H        -3.596892         1.209954         0.890740
 H        -1.339845         2.500908         0.022781
 H        -0.013322         2.614316         2.309880
 H        -1.643285         3.524073         2.474647
 H        -2.822638        -0.147574         3.134900
 H        -0.083255         0.112617         3.008740
 H        -0.603292        -1.215180         2.047488
