19
Iteration:   544
 O         0.667905         0.252227         0.075699
 C        -0.583010         0.398206         0.753976
 C        -1.912734         0.023878         0.047127
 C        -2.467858         1.051391         0.966807
 C        -1.112981         1.863794         0.934319
 C        -1.073417         2.504423         2.305505
 O        -1.930667         1.694212         3.136369
 C        -2.133757         0.479632         2.380191
 C        -0.861248        -0.219530         2.103061
 H         1.308279         0.122859         0.714473
 H        -1.981100         0.250457        -1.006260
 H        -2.252410        -1.035640         0.171994
 H        -3.526603         1.460959         0.942179
 H        -0.941734         2.625770         0.152168
 H        -0.059759         2.550341         2.680753
 H        -1.341110         3.630438         2.202884
 H        -2.955434        -0.109478         2.923843
 H        -0.144612        -0.040422         2.926451
 H        -1.057712        -1.311947         2.011670
