19
Iteration:  1323charge 0 multiplicity 1
 O         0.655354         0.241929         0.011935
 C        -0.557311         0.383319         0.753644
 C        -1.851323        -0.002594         0.008095
 C        -2.535131         1.022839         0.987834
 C        -1.163542         1.862666         0.953994
 C        -1.075058         2.476494         2.336009
 O        -1.931245         1.760044         3.136498
 C        -2.196591         0.505279         2.419015
 C        -0.791034        -0.219216         2.116736
 H         1.390205         0.219253         0.597872
 H        -1.950561         0.398715        -1.054376
 H        -2.038365        -1.142533         0.032807
 H        -3.569916         1.334162         0.890637
 H        -0.834229         2.667266         0.236507
 H         0.009082         2.564537         2.776438
 H        -1.464122         3.447785         2.382003
 H        -2.931163        -0.049447         2.962624
 H        -0.087057        -0.005850         2.883222
 H        -0.969939        -1.302106         2.017457
