19
Iteration:  3963charge 0 multiplicity 1
 O         0.690304         0.210453         0.206514
 C        -0.565171         0.467317         0.767512
 C        -1.891821         0.090394         0.024799
 C        -2.533189         0.980250         0.978525
 C        -1.229689         1.855722         0.918252
 C        -1.045684         2.478047         2.286117
 O        -1.949639         1.743795         3.123018
 C        -2.161815         0.471960         2.441269
 C        -0.700498        -0.251352         2.074438
 H         0.617211         0.192009        -0.741137
 H        -1.920935         0.539457        -1.020004
 H        -2.231967        -0.953110        -0.044377
 H        -3.457352         1.467813         0.762654
 H        -1.055102         2.473795         0.111290
 H         0.007844         2.405234         2.716756
 H        -1.442884         3.478088         2.221875
 H        -2.955026        -0.118290         2.938926
 H         0.039174        -0.027804         2.909479
 H        -0.811796        -1.325111         2.001009
