19
Iteration:  4867charge 0 multiplicity 1
 O         0.717526         0.098446         0.107094
 C        -0.583958         0.351572         0.690564
 C        -1.867207        -0.065536         0.009539
 C        -2.490312         1.051040         1.017403
 C        -1.262401         1.920442         0.915329
 C        -1.137344         2.570616         2.270383
 O        -1.924737         1.734160         3.185604
 C        -2.141567         0.493762         2.475226
 C        -0.756646        -0.156973         2.068429
 H         1.223932         1.005507         0.283067
 H        -1.867721         0.396651        -0.997207
 H        -2.047802        -1.165043         0.156979
 H        -3.483366         1.464438         0.858704
 H        -1.102126         2.639088         0.063460
 H        -0.115823         2.652918         2.711896
 H        -1.441879         3.596969         2.054062
 H        -2.925276        -0.140540         2.988990
 H        -0.053095         0.029528         2.855154
 H        -0.895553        -1.281524         1.990814
