19
Iteration:  3811
 O         0.731517         0.260981         0.126725
 C        -0.584609         0.435384         0.732057
 C        -1.869143        -0.058609        -0.025778
 C        -2.505619         0.981399         0.992233
 C        -1.114350         1.814840         0.930466
 C        -1.084214         2.432565         2.291813
 O        -1.904276         1.763830         3.111294
 C        -2.208408         0.509591         2.479760
 C        -0.855588        -0.148228         2.198302
 H         0.737364         0.559420        -0.806007
 H        -2.129734         0.431416        -1.022937
 H        -2.036924        -1.099257        -0.096718
 H        -3.531784         1.405091         0.879757
 H        -1.078420         2.387466         0.058267
 H        -0.103262         2.438489         2.682402
 H        -1.416587         3.539377         2.162198
 H        -2.909242         0.007610         3.197818
 H         0.022027         0.052466         2.903981
 H        -1.017639        -1.215870         2.064095
