19
Iteration:  1341charge 0 multiplicity 1
 O         0.687079         0.123619         0.017839
 C        -0.525140         0.450148         0.659972
 C        -1.818122         0.046346        -0.008181
 C        -2.522352         0.998061         0.938979
 C        -1.313501         1.858922         0.918900
 C        -1.002270         2.501383         2.341851
 O        -1.989331         1.692937         3.239746
 C        -2.175955         0.521976         2.466770
 C        -0.793232        -0.157680         2.159639
 H         1.453973         0.233565         0.523316
 H        -1.722415         0.557514        -1.045161
 H        -2.103715        -0.941324        -0.004712
 H        -3.487475         1.549883         0.710473
 H        -1.369901         2.490040        -0.002259
 H        -0.054631         2.198360         2.713251
 H        -1.174243         3.657725         2.363000
 H        -3.017432        -0.072696         2.895310
 H        -0.112269         0.369050         2.917195
 H        -0.670927        -1.235606         2.082773
