19
Iteration:  2928
 O         0.687658         0.250703         0.103741
 C        -0.564139         0.465904         0.745269
 C        -1.862233        -0.035071         0.019393
 C        -2.518840         0.955665         0.988652
 C        -1.317662         1.878240         0.872050
 C        -1.063962         2.547512         2.190269
 O        -1.852009         1.741083         3.207966
 C        -2.171494         0.454179         2.399308
 C        -0.772470        -0.164347         2.130374
 H         1.224323        -0.372730         0.794197
 H        -1.984390         0.103351        -1.056923
 H        -2.050228        -1.120893         0.234937
 H        -3.607841         1.284788         0.974986
 H        -1.284319         2.641502         0.011646
 H         0.108134         2.580897         2.301599
 H        -1.521884         3.426896         2.409502
 H        -2.925272        -0.085817         3.054948
 H        -0.294116         0.170711         3.114127
 H        -0.679741        -1.208608         2.035318
