19
Iteration:   942charge 0 multiplicity 1
 O         0.671032         0.271225         0.154422
 C        -0.535678         0.425247         0.753882
 C        -1.914448         0.065526         0.065688
 C        -2.561379         1.021190         0.971328
 C        -1.220967         1.846520         0.864947
 C        -1.024469         2.508471         2.253080
 O        -1.857124         1.690439         3.141239
 C        -2.253122         0.506424         2.427263
 C        -0.774608        -0.245235         2.083071
 H         1.292106        -0.387650         0.735434
 H        -1.888978         0.599485        -0.935784
 H        -2.216013        -1.035433        -0.188372
 H        -3.540581         1.544192         0.725303
 H        -1.003923         2.438160        -0.100903
 H        -0.032023         2.462438         2.817440
 H        -1.326649         3.447998         2.565436
 H        -3.055215         0.052408         2.963123
 H         0.000967        -0.171119         2.879698
 H        -0.734632        -1.362785         1.786528
