19
Iteration:  4722
 O         0.723684         0.059961         0.045714
 C        -0.581328         0.383787         0.728588
 C        -1.879048         0.014190        -0.022595
 C        -2.476254         1.105557         0.977863
 C        -1.167601         1.899921         0.931898
 C        -1.236758         2.584839         2.350965
 O        -1.892691         1.693300         3.255133
 C        -2.190106         0.515601         2.447905
 C        -0.741844        -0.234704         2.072053
 H         1.059260         0.893936        -0.302196
 H        -1.685463         0.307756        -1.006831
 H        -2.159328        -1.042553        -0.041843
 H        -3.423187         1.622678         0.740496
 H        -0.912123         2.649306         0.051312
 H        -0.302486         2.946891         2.822285
 H        -1.847026         3.397314         2.222655
 H        -2.876220        -0.161137         3.063498
 H         0.044729        -0.090618         2.876407
 H        -0.814088        -1.308541         1.936469
