19
Iteration:  1625
 O         0.692475         0.332821         0.166174
 C        -0.591259         0.441904         0.768483
 C        -1.884051         0.020607         0.026919
 C        -2.557126         1.022329         0.969341
 C        -1.283799         1.865167         0.907528
 C        -0.989534         2.532482         2.264300
 O        -1.925026         1.695903         3.118923
 C        -2.161623         0.453560         2.406925
 C        -0.745266        -0.273823         2.106971
 H         0.756610        -0.600728         0.087481
 H        -1.745384         0.256864        -1.105466
 H        -2.364276        -0.952145         0.076869
 H        -3.487724         1.497918         0.893271
 H        -1.012746         2.460808         0.041819
 H         0.027417         2.464684         2.747563
 H        -1.271873         3.526384         2.420559
 H        -2.843506        -0.110917         2.970961
 H         0.002457         0.087470         2.862618
 H        -0.686557        -1.321657         2.048072
