19
Iteration:  2168
 O         0.629225         0.346535         0.017676
 C        -0.495309         0.382667         0.799971
 C        -1.836386        -0.040417         0.090502
 C        -2.487131         0.933531         0.978372
 C        -1.275506         1.837679         0.885198
 C        -1.105732         2.599263         2.175333
 O        -1.830712         1.723626         3.137410
 C        -2.130681         0.520451         2.484693
 C        -0.908248        -0.289170         2.187005
 H         1.485071         0.088476         0.593428
 H        -1.828719         0.320509        -0.937382
 H        -2.094160        -1.129586         0.070617
 H        -3.497573         1.446560         0.803262
 H        -1.165334         2.321468        -0.160437
 H        -0.003145         2.662521         2.459239
 H        -1.571889         3.618595         2.396165
 H        -2.917722         0.149472         3.152945
 H        -0.073476        -0.086529         2.882182
 H        -1.137919        -1.331796         2.052784
