19
Iteration:  3230
 O         0.639109         0.254412         0.005247
 C        -0.570980         0.353381         0.828416
 C        -1.776829        -0.042005         0.031087
 C        -2.555921         0.934026         0.973177
 C        -1.305179         1.804016         0.926217
 C        -1.043567         2.525150         2.263128
 O        -1.971595         1.792334         3.091040
 C        -2.085342         0.587021         2.448488
 C        -0.747111        -0.184630         2.149567
 H         1.312569         0.567217         0.680439
 H        -1.789586         0.280924        -1.006727
 H        -1.947137        -1.215068         0.043271
 H        -3.577788         1.365246         1.062112
 H        -1.309193         2.496195         0.047923
 H        -0.030912         2.377534         2.738882
 H        -1.400148         3.523659         2.260646
 H        -2.856303         0.044669         3.058747
 H         0.013738        -0.098418         2.983851
 H        -0.976575        -1.303286         2.150511
