19
Iteration:  1883charge 0 multiplicity 1
 O         0.700256         0.446992         0.126235
 C        -0.546502         0.408068         0.772189
 C        -1.884659        -0.057448         0.107186
 C        -2.593701         0.961328         0.970619
 C        -1.265377         1.804925         0.856237
 C        -1.010232         2.480827         2.181420
 O        -1.825900         1.752634         3.139674
 C        -2.191354         0.499806         2.443793
 C        -0.867016        -0.242775         2.113179
 H         1.253586        -0.429669         0.070184
 H        -1.773407         0.179667        -0.897051
 H        -2.212802        -1.143224         0.146817
 H        -3.587907         1.393136         0.919931
 H        -0.943689         2.450700         0.068357
 H         0.037075         2.382475         2.567349
 H        -1.225512         3.510902         2.433968
 H        -2.963101         0.063101         3.081962
 H        -0.240801         0.020515         2.971511
 H        -0.924084        -1.359173         2.054922
