19
Iteration:  4830charge 0 multiplicity 1
 O         0.705208         0.236084         0.322082
 C        -0.640069         0.395716         0.757847
 C        -1.843298         0.016437        -0.089857
 C        -2.531774         1.058792         1.035804
 C        -1.276798         1.863121         0.910445
 C        -1.175812         2.651737         2.169096
 O        -1.707548         1.669558         3.136793
 C        -2.125007         0.450998         2.415927
 C        -0.836253        -0.288726         2.146569
 H         0.669660        -0.183836        -0.600320
 H        -1.804618         0.587225        -0.974539
 H        -2.220435        -0.937957        -0.261760
 H        -3.594144         1.329367         0.836123
 H        -1.096717         2.469739        -0.045147
 H        -0.110961         2.860638         2.472935
 H        -1.895967         3.607551         2.263342
 H        -2.825668        -0.083958         3.115840
 H         0.028355        -0.072292         2.859109
 H        -0.851254        -1.337042         1.866573
