19
Iteration:  3309
 O         0.722376         0.209557         0.094833
 C        -0.534376         0.416723         0.719023
 C        -1.786132        -0.034640        -0.004425
 C        -2.572302         0.896425         1.103432
 C        -1.282729         1.787304         0.929789
 C        -1.187516         2.633408         2.171853
 O        -1.784729         1.771903         3.134697
 C        -2.188340         0.488688         2.491225
 C        -0.829022        -0.158608         2.085923
 H         1.220090        -0.239930         0.737984
 H        -1.903498         0.572143        -0.953994
 H        -1.972300        -1.140003        -0.196769
 H        -3.470360         1.486223         0.996973
 H        -1.374700         2.353618         0.127072
 H        -0.197001         2.982880         2.525173
 H        -1.747142         3.618974         2.107563
 H        -2.877045         0.021475         3.146732
 H         0.057303         0.070475         2.799638
 H        -1.063523        -1.274567         2.083088
