19
Iteration:  2317
 O         0.733628         0.155152         0.149739
 C        -0.560346         0.429510         0.724303
 C        -1.875888         0.089588        -0.024498
 C        -2.571739         0.882409         1.082110
 C        -1.373289         1.837227         0.878238
 C        -1.125203         2.599988         2.153262
 O        -1.845915         1.783271         3.146076
 C        -2.081810         0.467008         2.493315
 C        -0.765972        -0.198875         2.096467
 H         1.289709         0.333316         0.880231
 H        -1.890535         0.442953        -1.054648
 H        -2.017356        -1.039682        -0.079496
 H        -3.666180         1.119151         0.917494
 H        -1.424392         2.558447         0.029124
 H         0.018690         2.639702         2.310885
 H        -1.493707         3.562524         2.432135
 H        -2.826081        -0.064509         3.136190
 H         0.053255        -0.016299         2.724803
 H        -0.890817        -1.325342         2.140181
