19
Iteration:  4561charge 0 multiplicity 1
 O         0.716238         0.052113         0.126363
 C        -0.574524         0.379384         0.671596
 C        -1.904214         0.204989        -0.066327
 C        -2.511591         1.019722         1.008388
 C        -1.241702         1.890761         1.003940
 C        -1.215114         2.621666         2.309733
 O        -1.821450         1.641443         3.230541
 C        -2.119844         0.414752         2.397414
 C        -0.782429        -0.209320         2.017892
 H         1.299620         0.602076         0.577885
 H        -1.933551         0.571096        -1.102279
 H        -2.291888        -0.888319        -0.075503
 H        -3.474925         1.485489         0.955271
 H        -0.958393         2.664024         0.253754
 H        -0.204812         2.793074         2.715958
 H        -1.893803         3.651682         2.090019
 H        -2.887812        -0.209427         2.939166
 H         0.004993         0.186128         2.731766
 H        -0.676679        -1.321815         2.102816
