19
Iteration:  2712
 O         0.743169         0.296739         0.145478
 C        -0.529732         0.429816         0.716575
 C        -1.822304        -0.005633         0.045073
 C        -2.607084         0.861540         1.025158
 C        -1.338793         1.845809         0.925522
 C        -1.074855         2.481291         2.187678
 O        -1.857618         1.808605         3.134815
 C        -2.141845         0.462381         2.468598
 C        -0.806420        -0.107567         2.135287
 H         0.673469        -0.672521        -0.126346
 H        -2.014815         0.546720        -0.879309
 H        -1.828526        -1.135383        -0.028376
 H        -3.635496         1.197799         0.872896
 H        -1.470376         2.497555         0.028729
 H        -0.025781         2.441919         2.451957
 H        -1.364702         3.608104         2.139110
 H        -2.811171        -0.068654         3.045724
 H        -0.048882         0.093643         2.854682
 H        -0.682574        -1.289563         2.124331
