19
Iteration:  2238
 O         0.619734         0.179320         0.042040
 C        -0.560643         0.422086         0.783142
 C        -1.852299        -0.000908         0.011961
 C        -2.489509         0.948201         1.048584
 C        -1.235973         1.807716         0.919903
 C        -1.122577         2.607013         2.266756
 O        -1.953876         1.786745         3.113036
 C        -2.115572         0.505127         2.486045
 C        -0.721377        -0.219646         2.077791
 H         1.425994         0.372959         0.650741
 H        -1.941061         0.447814        -1.089539
 H        -2.234701        -1.123934         0.119329
 H        -3.447286         1.244086         0.773406
 H        -1.199029         2.348739         0.029903
 H        -0.035934         2.558307         2.756102
 H        -1.458100         3.602993         2.269332
 H        -2.768348        -0.096361         3.137098
 H         0.118924         0.184596         2.719821
 H        -0.840325        -1.323642         2.028926
