19
Iteration:  1080charge 0 multiplicity 1
 O         0.690395         0.294689         0.175182
 C        -0.573794         0.403329         0.729106
 C        -1.877296         0.010126        -0.070912
 C        -2.582996         1.050119         0.997604
 C        -1.190564         1.800859         0.947002
 C        -1.092394         2.514133         2.288499
 O        -1.843562         1.694429         3.149196
 C        -2.178732         0.519396         2.447570
 C        -0.802143        -0.239582         2.043666
 H         1.127275        -0.329638         0.660299
 H        -1.751809         0.413685        -1.133515
 H        -2.234279        -0.967459        -0.139133
 H        -3.459890         1.719178         1.007691
 H        -1.238420         2.425808         0.041628
 H        -0.037182         2.553111         2.713620
 H        -1.396567         3.595587         2.179132
 H        -2.881991        -0.139770         3.008301
 H        -0.055081        -0.009870         2.817864
 H        -0.941753        -1.277431         2.073832
