19
Iteration:  2750
 O         0.702655         0.350044         0.122473
 C        -0.552558         0.369930         0.741956
 C        -1.917912        -0.051480         0.079258
 C        -2.515550         1.029403         1.006067
 C        -1.185334         1.742506         0.935150
 C        -1.235765         2.562764         2.200476
 O        -1.851167         1.775461         3.178887
 C        -2.102855         0.541551         2.419401
 C        -0.747948        -0.272230         2.111135
 H         1.040321        -0.518745        -0.355135
 H        -1.914785         0.147824        -1.005885
 H        -2.166335        -1.102660         0.196744
 H        -3.552108         1.336787         0.802894
 H        -0.930724         2.395532         0.111764
 H        -0.237642         2.989012         2.492604
 H        -1.815761         3.366498         1.987538
 H        -2.918449        -0.053413         3.003081
 H        -0.106652         0.172016         2.908717
 H        -0.818065        -1.294756         2.131160
