19
Iteration:  2389charge 0 multiplicity 1
 O         0.708861         0.216741        -0.006981
 C        -0.532478         0.394949         0.704899
 C        -1.839687        -0.039266         0.028762
 C        -2.535864         0.928612         1.045952
 C        -1.251305         1.821748         0.898473
 C        -1.089305         2.530757         2.200987
 O        -1.971189         1.797200         3.181980
 C        -2.110433         0.495369         2.499824
 C        -0.784887        -0.165970         2.158574
 H         1.339790         0.528692         0.636371
 H        -2.144097         0.407995        -0.979373
 H        -2.177907        -1.068383         0.180514
 H        -3.519051         1.237321         0.808898
 H        -1.220556         2.535957         0.057839
 H        -0.129301         2.565012         2.663616
 H        -1.479779         3.628517         2.189871
 H        -2.852807        -0.066706         3.044349
 H         0.050566         0.156148         2.932690
 H        -0.838401        -1.236937         2.219858
