19
Iteration:   406charge 0 multiplicity 1
 O         0.759144         0.093320         0.102365
 C        -0.535550         0.412689         0.636067
 C        -1.920921         0.067624         0.007046
 C        -2.484145         1.051136         1.004782
 C        -1.139372         1.815782         0.926513
 C        -1.112952         2.449476         2.317703
 O        -2.006934         1.727404         3.218564
 C        -2.206211         0.554259         2.411198
 C        -0.801914        -0.136581         2.049056
 H         1.539264         0.152497         0.782300
 H        -2.095889         0.600030        -1.053386
 H        -2.302698        -0.948384        -0.074133
 H        -3.422073         1.622630         0.812133
 H        -0.987934         2.604793         0.156255
 H        -0.107578         2.484156         2.885123
 H        -1.426384         3.443613         2.314530
 H        -2.876333        -0.119968         3.073139
 H         0.000763         0.190099         2.770968
 H        -0.842990        -1.232249         1.977032
