19
Iteration:  3915charge 0 multiplicity 1
 O         0.651073         0.207813         0.104727
 C        -0.557746         0.489630         0.756869
 C        -1.795927        -0.042981         0.067324
 C        -2.524151         0.983592         0.962488
 C        -1.171476         1.873492         0.904361
 C        -1.066164         2.472746         2.275699
 O        -1.876789         1.714382         3.212505
 C        -2.226037         0.514236         2.396860
 C        -0.848234        -0.207192         2.091436
 H         1.148422         1.045157         0.011341
 H        -1.857306         0.301912        -0.992994
 H        -2.143110        -1.224705         0.044576
 H        -3.538655         1.455591         0.874588
 H        -1.110205         2.657086        -0.008191
 H         0.044659         2.242824         2.456029
 H        -1.397655         3.504789         2.400398
 H        -3.088198         0.082359         2.917124
 H        -0.281140        -0.039742         2.987106
 H        -0.784053        -1.279383         1.789238
