19
Iteration:  2237charge 0 multiplicity 1
 O         0.632758         0.175457         0.051588
 C        -0.564669         0.424661         0.776561
 C        -1.868937        -0.002663         0.011418
 C        -2.493614         0.949081         1.049599
 C        -1.230940         1.808017         0.917462
 C        -1.124294         2.606558         2.268231
 O        -1.955472         1.789624         3.113357
 C        -2.115261         0.504502         2.492705
 C        -0.714221        -0.225665         2.075150
 H         1.401268         0.368917         0.611100
 H        -1.940176         0.477265        -1.073927
 H        -2.232654        -1.138813         0.091699
 H        -3.438882         1.271568         0.765357
 H        -1.217144         2.353781         0.031888
 H        -0.015520         2.569946         2.734782
 H        -1.491372         3.611892         2.270405
 H        -2.767574        -0.118305         3.107569
 H         0.135463         0.199577         2.723248
 H        -0.828014        -1.303890         2.012726
