19
Iteration:  1028charge 0 multiplicity 1
 O         0.668547         0.319712         0.110460
 C        -0.556598         0.431305         0.707873
 C        -1.840786        -0.003952         0.034407
 C        -2.542580         1.000688         0.885320
 C        -1.175394         1.810882         0.948966
 C        -1.006715         2.477424         2.316622
 O        -1.928775         1.741539         3.247341
 C        -2.186403         0.519900         2.447102
 C        -0.844425        -0.207735         2.060382
 H         0.841208        -0.576857         0.013738
 H        -1.859473         0.327712        -1.033766
 H        -2.121725        -1.049775         0.051869
 H        -3.618993         1.329782         0.800327
 H        -0.816052         2.532873         0.119172
 H         0.003269         2.476865         2.647767
 H        -1.272908         3.577758         2.099383
 H        -2.997794        -0.069127         2.828320
 H        -0.057089        -0.026730         2.821190
 H        -0.998771        -1.328385         2.135060
