19
Iteration:  1227
 O         0.687301         0.244369         0.074480
 C        -0.506107         0.419004         0.712382
 C        -1.945331        -0.001947        -0.069331
 C        -2.497496         1.021666         1.058098
 C        -1.181281         1.848803         0.923916
 C        -1.004416         2.574958         2.290265
 O        -1.949996         1.665003         3.166833
 C        -2.162055         0.457377         2.413001
 C        -0.852688        -0.184850         2.160979
 H         1.499817         0.165815         0.746989
 H        -2.039487         0.395429        -0.987915
 H        -2.316832        -1.057116        -0.076772
 H        -3.436275         1.531676         0.956627
 H        -1.020130         2.391047         0.019059
 H        -0.044761         2.620971         2.747298
 H        -1.523830         3.597644         2.118471
 H        -2.924304        -0.049096         2.973864
 H        -0.096798         0.014570         2.889861
 H        -0.998602        -1.275053         1.888409
