19
Iteration:   347charge 0 multiplicity 1
 O         0.739878         0.299212         0.189737
 C        -0.550941         0.382582         0.732828
 C        -1.839977         0.061035        -0.129627
 C        -2.538487         1.012650         1.027116
 C        -1.232254         1.857432         0.914985
 C        -1.006048         2.618211         2.222123
 O        -1.804852         1.698289         3.160831
 C        -2.246450         0.490896         2.441278
 C        -1.006577        -0.363203         2.144675
 H         1.291069        -0.051562         0.805446
 H        -1.812506         0.500616        -1.072638
 H        -2.108912        -1.069498        -0.217199
 H        -3.477976         1.529856         1.005632
 H        -1.139402         2.409868        -0.004473
 H         0.086405         2.583136         2.598139
 H        -1.430243         3.689245         2.151974
 H        -2.933984         0.002451         3.089183
 H        -0.211844        -0.306450         2.898204
 H        -1.068769        -1.452090         1.907150
