19
Iteration:  3319charge 0 multiplicity 1
 O         0.702410         0.209761         0.053194
 C        -0.520169         0.424276         0.789057
 C        -1.867885         0.014204         0.077315
 C        -2.555890         0.874692         1.027342
 C        -1.210509         1.822448         0.884398
 C        -1.246210         2.578521         2.177425
 O        -1.791694         1.767531         3.184798
 C        -2.133315         0.549633         2.438894
 C        -0.853666        -0.172950         2.135191
 H         1.404740        -0.251316         0.581822
 H        -1.880065         0.556581        -0.908063
 H        -2.032985        -1.099172        -0.169385
 H        -3.512838         1.244236         0.738670
 H        -1.194016         2.269811        -0.060275
 H        -0.175763         2.786035         2.510856
 H        -1.814466         3.482680         2.078685
 H        -2.681209        -0.057118         3.097129
 H        -0.180702         0.113348         3.028081
 H        -0.747297        -1.260762         1.950734
