19
Iteration:  1657
 O         0.751246         0.203488         0.123757
 C        -0.493003         0.471713         0.687171
 C        -1.831586         0.026721        -0.055683
 C        -2.542772         0.979965         1.067524
 C        -1.215210         1.854949         0.925859
 C        -1.088108         2.583641         2.193247
 O        -1.951254         1.652885         3.244800
 C        -2.218740         0.510326         2.509206
 C        -0.806860        -0.208823         2.113650
 H         0.589001        -0.412138        -0.734344
 H        -1.873604         0.529738        -1.202089
 H        -2.210846        -1.037409         0.030860
 H        -3.409056         1.565477         0.886861
 H        -1.122655         2.491345         0.045259
 H        -0.048043         2.658629         2.789853
 H        -1.547514         3.557188         2.170877
 H        -2.961206        -0.023502         3.032120
 H         0.057715         0.110622         2.758798
 H        -0.811129        -1.257544         2.053874
