19
Iteration:   456charge 0 multiplicity 1
 O         0.696314         0.186960         0.007609
 C        -0.565012         0.414279         0.716601
 C        -1.818170         0.032146         0.029747
 C        -2.529247         1.048939         0.927391
 C        -1.139305         1.802114         0.886327
 C        -1.032802         2.538382         2.301939
 O        -1.919786         1.651184         3.242925
 C        -2.240154         0.576405         2.390294
 C        -0.895820        -0.176326         2.197545
 H         1.460102         0.372204         0.587935
 H        -1.714208         0.296713        -0.965983
 H        -2.007364        -1.074038        -0.035954
 H        -3.563198         1.443277         0.865106
 H        -0.948192         2.404427        -0.005769
 H        -0.205774         2.628373         2.885982
 H        -1.550560         3.616616         2.322500
 H        -2.904189        -0.078393         2.968983
 H        -0.130428        -0.093046         2.976019
 H        -1.112328        -1.252288         2.000979
