19
Iteration:  4926charge 0 multiplicity 1
 O         0.770933         0.309131         0.185588
 C        -0.583709         0.377883         0.716834
 C        -1.904952        -0.071610         0.003917
 C        -2.519333         0.907909         0.961432
 C        -1.250424         1.813794         0.876112
 C        -1.042349         2.582393         2.271693
 O        -1.937768         1.794133         3.154906
 C        -2.127301         0.514575         2.461962
 C        -0.780746        -0.179556         2.155785
 H         0.654568         0.087131        -0.699745
 H        -2.250262         0.152583        -1.069452
 H        -2.103438        -1.254181        -0.000149
 H        -3.539788         1.346989         0.841107
 H        -1.105669         2.370782        -0.034750
 H        -0.080778         2.437490         2.714906
 H        -1.300642         3.626691         2.281256
 H        -2.899967        -0.012008         2.997505
 H        -0.080097        -0.005531         3.007258
 H        -1.008451        -1.232192         2.159024
