19
Iteration:  2127charge 0 multiplicity 1
 O         0.666356         0.263463         0.157016
 C        -0.649194         0.411807         0.680759
 C        -1.920651        -0.098092         0.040765
 C        -2.502219         0.963566         1.033541
 C        -1.267869         1.861893         0.849978
 C        -1.069707         2.533633         2.261765
 O        -1.909118         1.723877         3.105075
 C        -2.082014         0.522331         2.456237
 C        -0.709236        -0.104152         2.118516
 H         1.114874        -0.245443         0.761872
 H        -2.081897         0.374109        -1.038678
 H        -2.399726        -1.196538        -0.052545
 H        -3.443887         1.462804         0.820088
 H        -1.213382         2.507443        -0.040803
 H        -0.011305         2.331401         2.635953
 H        -1.240498         3.544449         2.313401
 H        -2.649916        -0.223696         3.005979
 H         0.002080         0.273719         2.963675
 H        -0.680064        -1.205371         2.146140
