19
Iteration:  4939
 O         0.754627         0.208914         0.281877
 C        -0.542947         0.430256         0.731370
 C        -1.922476        -0.097603         0.016637
 C        -2.574013         0.922608         1.039432
 C        -1.265166         1.881481         0.888500
 C        -1.083181         2.570094         2.207174
 O        -1.881887         1.774424         3.128702
 C        -2.105456         0.533347         2.420066
 C        -0.811105        -0.230965         2.078998
 H         0.862683         0.791964        -0.581457
 H        -1.786017         0.344776        -0.949583
 H        -2.246311        -1.160969         0.117694
 H        -3.634341         1.289086         0.935587
 H        -1.195460         2.587960        -0.019823
 H        -0.040078         2.709552         2.395948
 H        -1.597587         3.591582         2.209909
 H        -2.751117        -0.125458         3.098115
 H         0.108993        -0.077719         2.738617
 H        -0.925171        -1.289987         1.920674
