19
Iteration:  3529charge 0 multiplicity 1
 O         0.605344         0.425795         0.092480
 C        -0.576282         0.448508         0.799861
 C        -1.839644        -0.132244         0.136033
 C        -2.558473         0.930284         0.916835
 C        -1.236811         1.837124         0.857940
 C        -0.996647         2.529209         2.245316
 O        -1.885647         1.774029         3.053365
 C        -2.181226         0.497713         2.413025
 C        -0.787560        -0.184958         2.248938
 H         0.943083        -0.508391         0.150766
 H        -1.603671        -0.002125        -0.989217
 H        -2.119223        -1.221048         0.179707
 H        -3.650521         1.206455         0.761231
 H        -1.049128         2.265127        -0.037787
 H         0.078495         2.260722         2.484669
 H        -1.159189         3.526840         2.395481
 H        -2.867711        -0.116781         3.059952
 H        -0.049081         0.100443         3.043672
 H        -0.819831        -1.290874         2.209961
