19
Iteration:  3239charge 0 multiplicity 1
 O         0.649802         0.309932         0.016393
 C        -0.551430         0.381852         0.743735
 C        -1.805983        -0.146937        -0.000106
 C        -2.526876         0.929985         1.002302
 C        -1.304305         1.804902         0.920620
 C        -1.056140         2.493983         2.264630
 O        -1.920593         1.804591         3.158233
 C        -2.148868         0.602839         2.439705
 C        -0.798770        -0.157609         2.220830
 H         1.418623         0.465344         0.633553
 H        -1.708714         0.300124        -0.990847
 H        -2.182211        -1.216214        -0.060304
 H        -3.564214         1.163941         0.673454
 H        -1.077501         2.388311        -0.121551
 H         0.056812         2.398085         2.592153
 H        -1.267517         3.521887         2.364723
 H        -2.874625        -0.028830         3.043264
 H        -0.031810        -0.024837         2.968216
 H        -1.029167        -1.195376         2.011479
