19
Iteration:  1398charge 0 multiplicity 1
 O         0.712225         0.292739         0.026027
 C        -0.555304         0.391559         0.725289
 C        -1.862277         0.027897        -0.026504
 C        -2.541814         0.979393         1.016329
 C        -1.129062         1.842967         0.912997
 C        -1.219490         2.558782         2.245228
 O        -1.810426         1.651230         3.212301
 C        -2.163473         0.561191         2.441228
 C        -0.907722        -0.270633         2.169843
 H         1.536160         0.243390         0.740019
 H        -1.843521         0.286796        -1.145238
 H        -2.073189        -1.031099        -0.093591
 H        -3.465952         1.539127         0.973261
 H        -0.892533         2.518745         0.037080
 H        -0.246277         2.604656         2.766530
 H        -1.542071         3.619017         2.237348
 H        -2.990843         0.136046         2.934391
 H        -0.070404        -0.308639         2.885582
 H        -1.185705        -1.298709         2.046257
