19
Iteration:   710charge 0 multiplicity 1
 O         0.757844         0.268853         0.081713
 C        -0.550588         0.373663         0.676355
 C        -1.986761        -0.025051        -0.037767
 C        -2.511107         1.055743         0.965943
 C        -1.161112         1.826580         0.954380
 C        -1.066073         2.428174         2.331137
 O        -1.953651         1.680923         3.189588
 C        -2.186494         0.617759         2.421529
 C        -0.764381        -0.156873         2.156071
 H         1.079592        -0.689502         0.387653
 H        -1.786226         0.376522        -1.101527
 H        -2.444401        -0.934253        -0.270025
 H        -3.359443         1.657934         0.904211
 H        -0.973011         2.425463         0.109236
 H        -0.014809         2.627142         2.733223
 H        -1.566195         3.405627         2.386638
 H        -3.070377         0.111787         2.855250
 H         0.089435         0.110602         2.841774
 H        -0.998259        -1.217828         2.211567
