19
Iteration:  1114charge 0 multiplicity 1
 O         0.654547         0.280220         0.130693
 C        -0.533465         0.491581         0.814105
 C        -1.837394         0.036140         0.025209
 C        -2.603549         1.050108         0.968706
 C        -1.185579         1.807336         0.891532
 C        -1.126351         2.542470         2.225688
 O        -1.760812         1.657051         3.213005
 C        -2.180230         0.484164         2.364660
 C        -0.874504        -0.291857         2.062030
 H         1.331654        -0.161918         0.693681
 H        -1.554521         0.408985        -1.011735
 H        -2.071819        -0.978848         0.028124
 H        -3.603987         1.617271         0.970029
 H        -1.070242         2.578548         0.037325
 H        -0.110403         2.636332         2.662217
 H        -1.661071         3.537637         2.114717
 H        -2.895229        -0.014164         3.049928
 H        -0.260566        -0.289296         2.953325
 H        -1.203813        -1.261949         1.790107
