19
Iteration:  1749
 O         0.618923         0.301503         0.177205
 C        -0.590910         0.428063         0.764706
 C        -1.877976        -0.040823        -0.006745
 C        -2.496440         0.986816         0.990872
 C        -1.216808         1.797846         0.911023
 C        -1.073256         2.487550         2.220184
 O        -1.880933         1.819786         3.153393
 C        -2.120201         0.471021         2.424039
 C        -0.762103        -0.296469         2.045524
 H         1.234244         0.901980         0.717280
 H        -2.089995         0.403059        -1.053996
 H        -2.336286        -1.050771         0.094256
 H        -3.544550         1.391521         1.134035
 H        -1.199591         2.490167         0.046143
 H         0.072901         2.392558         2.545224
 H        -1.278554         3.599355         2.140816
 H        -2.889382        -0.164662         3.032939
 H        -0.053783         0.002803         2.761453
 H        -0.966280        -1.407129         2.105239
