19
Iteration:  2280
 O         0.677209         0.329689         0.011591
 C        -0.542180         0.337090         0.692286
 C        -1.878411        -0.064708         0.106781
 C        -2.546156         0.965637         0.971385
 C        -1.208538         1.809528         0.917495
 C        -1.066391         2.495590         2.255851
 O        -1.895490         1.724830         3.168000
 C        -2.220494         0.557314         2.441277
 C        -0.783619        -0.148641         2.158411
 H         1.392687         0.412891         0.542687
 H        -1.902902         0.069933        -1.039880
 H        -2.181883        -1.100250         0.508417
 H        -3.471800         1.430078         0.883037
 H        -1.055595         2.289243         0.007358
 H         0.058115         2.475130         2.481861
 H        -1.443612         3.514188         2.179346
 H        -2.964268        -0.058249         2.917346
 H        -0.131647         0.396488         2.943003
 H        -0.756401        -1.214487         2.186873
