19
Iteration:  2452
 O         0.707289         0.322399         0.068121
 C        -0.558905         0.351646         0.680171
 C        -1.910749        -0.104538         0.061400
 C        -2.511717         0.942917         0.974473
 C        -1.210318         1.758296         0.928570
 C        -1.181723         2.667742         2.238247
 O        -1.824594         1.732074         3.198414
 C        -2.139547         0.568468         2.460599
 C        -0.800522        -0.251589         2.131879
 H         1.448219         0.294379         0.682552
 H        -2.180001         0.130802        -0.971161
 H        -2.262847        -1.061530         0.200340
 H        -3.428786         1.535989         0.709743
 H        -1.138556         2.407138        -0.046975
 H        -0.169179         2.967481         2.558733
 H        -1.778843         3.576097         2.054151
 H        -2.833475        -0.048462         2.992780
 H        -0.038571        -0.067572         2.864604
 H        -0.871469        -1.293792         1.997261
