19
Iteration:   761charge 0 multiplicity 1
 O         0.691002         0.304814         0.208559
 C        -0.576159         0.435321         0.725846
 C        -1.906514         0.026688        -0.060940
 C        -2.502372         0.991760         0.931185
 C        -1.169495         1.913006         0.882039
 C        -1.039737         2.506444         2.277430
 O        -1.890671         1.725968         3.184667
 C        -2.121550         0.479431         2.423889
 C        -0.848189        -0.269160         2.182886
 H         0.620105        -0.601438        -0.287994
 H        -1.975588         0.345400        -1.105811
 H        -2.343221        -1.027604        -0.039847
 H        -3.580363         1.393679         0.821921
 H        -1.040456         2.495669        -0.055806
 H         0.008149         2.392393         2.626030
 H        -1.337914         3.625408         2.313733
 H        -2.872539        -0.061534         3.105915
 H        -0.123083        -0.195431         3.015049
 H        -1.082251        -1.343896         1.984383
