19
Iteration:  2149
 O         0.742444         0.363814         0.040863
 C        -0.578276         0.361656         0.705515
 C        -1.950308        -0.049276         0.008661
 C        -2.579618         0.980302         1.072975
 C        -1.183492         1.760379         0.942621
 C        -1.067619         2.500013         2.197409
 O        -1.899864         1.841940         3.176954
 C        -2.195294         0.549623         2.464259
 C        -0.754200        -0.269647         2.135476
 H         1.450498         0.025128         0.759725
 H        -1.992591         0.183342        -1.176836
 H        -2.204823        -1.266127         0.042753
 H        -3.597668         1.280152         0.915136
 H        -1.126136         2.280636        -0.005882
 H        -0.023046         2.716536         2.629353
 H        -1.503339         3.417440         2.015855
 H        -2.932419        -0.058523         2.995270
 H         0.090145         0.014213         2.947966
 H        -0.833100        -1.363273         2.077376
