19
Iteration:  4943
 O         0.741602         0.182606         0.300411
 C        -0.566952         0.453972         0.725129
 C        -1.891656        -0.061179         0.034314
 C        -2.567073         0.961339         1.056105
 C        -1.276970         1.865956         0.881604
 C        -1.134500         2.566512         2.185505
 O        -1.843044         1.751357         3.110004
 C        -2.101926         0.533923         2.440712
 C        -0.798288        -0.248060         2.064343
 H         0.922667         0.900264        -0.342349
 H        -1.820223         0.267393        -1.003688
 H        -2.233629        -1.038434         0.093025
 H        -3.592771         1.216998         0.886420
 H        -1.312551         2.531858        -0.014580
 H        -0.011653         2.688119         2.423784
 H        -1.613394         3.597032         2.075121
 H        -2.765281        -0.057540         3.093757
 H         0.034195        -0.048421         2.709350
 H        -0.828072        -1.366384         1.881453
