19
Iteration:  1195
 O         0.614226         0.236497        -0.027160
 C        -0.524076         0.406419         0.829334
 C        -1.834833        -0.034530        -0.018231
 C        -2.523544         1.053822         0.898778
 C        -1.243005         1.826063         0.984278
 C        -0.999470         2.504008         2.377706
 O        -1.952171         1.687411         3.141214
 C        -2.187560         0.540186         2.385291
 C        -0.778430        -0.174848         2.166019
 H         1.449717         0.484100         0.361979
 H        -1.815444         0.279821        -0.990610
 H        -2.378086        -1.022616         0.055409
 H        -3.496244         1.445028         0.694938
 H        -0.867551         2.390198         0.190640
 H        -0.044287         2.435805         2.832119
 H        -1.281674         3.695727         2.479499
 H        -2.878811        -0.022190         3.010336
 H        -0.058741        -0.120186         3.002873
 H        -1.032187        -1.294996         2.063570
