19
Iteration:  2428
 O         0.648344         0.215023         0.122505
 C        -0.561771         0.450006         0.682227
 C        -1.880286        -0.010019         0.072680
 C        -2.533717         0.941263         1.005777
 C        -1.317831         1.901271         0.856038
 C        -1.052090         2.505750         2.196067
 O        -1.913233         1.715495         3.136872
 C        -2.128411         0.472375         2.449978
 C        -0.724816        -0.137820         2.188932
 H         1.450024         0.484722         0.755082
 H        -1.968220         0.170579        -0.967441
 H        -2.148855        -1.072299         0.188039
 H        -3.646804         1.226647         0.898962
 H        -1.177363         2.555284        -0.065912
 H         0.073173         2.521029         2.322157
 H        -1.397033         3.493602         2.198730
 H        -2.746074        -0.205424         3.035163
 H        -0.129149         0.212399         2.955165
 H        -0.585660        -1.241094         2.117378
