19
Iteration:   227charge 0 multiplicity 1
 O         0.639408         0.129518         0.247423
 C        -0.603259         0.439735         0.762254
 C        -1.821174         0.020456        -0.026265
 C        -2.520700         1.124930         0.910030
 C        -1.263027         1.893197         0.839925
 C        -1.059304         2.514932         2.257269
 O        -1.808196         1.643356         3.184409
 C        -2.215193         0.502850         2.407910
 C        -0.815890        -0.226413         2.118164
 H         1.249876         0.997201         0.273853
 H        -1.690687         0.277005        -1.041878
 H        -2.222146        -1.077627         0.037279
 H        -3.464002         1.594648         0.660103
 H        -1.227401         2.519198        -0.046665
 H         0.004280         2.494469         2.625059
 H        -1.373765         3.429727         2.481027
 H        -3.055760         0.083604         2.897463
 H        -0.142114        -0.096420         2.965326
 H        -0.692564        -1.324008         2.021968
