19
Iteration:  2115
 O         0.655170         0.190703         0.125205
 C        -0.548600         0.475295         0.745721
 C        -1.894620        -0.044537         0.045123
 C        -2.578458         0.986245         1.010702
 C        -1.347118         1.939761         0.856992
 C        -1.056711         2.479239         2.228385
 O        -1.870896         1.725772         3.135438
 C        -2.132553         0.483241         2.393468
 C        -0.686585        -0.099873         2.171228
 H         1.105632        -0.592595         0.680761
 H        -1.771240         0.298923        -1.060850
 H        -2.028101        -1.252826         0.127100
 H        -3.681612         1.196135         0.988917
 H        -1.410141         2.573812        -0.089936
 H         0.074477         2.423795         2.427526
 H        -1.378358         3.452072         2.444260
 H        -2.949798         0.023813         2.948966
 H         0.162922         0.286454         2.871972
 H        -0.635283        -1.191670         2.079466
