19
Iteration:  2555
 O         0.599084         0.302097        -0.053096
 C        -0.564766         0.430002         0.823553
 C        -1.760821        -0.066412         0.018865
 C        -2.521438         0.941399         1.023386
 C        -1.252823         1.807992         0.886721
 C        -1.050407         2.495975         2.256493
 O        -1.948733         1.748584         3.102892
 C        -2.141754         0.549072         2.485605
 C        -0.781291        -0.203648         2.244405
 H         1.457188         0.733561         0.247643
 H        -1.647875         0.427067        -0.916781
 H        -2.070139        -1.141826         0.044128
 H        -3.446497         1.448966         0.806090
 H        -1.305923         2.240493        -0.041313
 H        -0.033900         2.354715         2.501834
 H        -1.370239         3.633528         2.369177
 H        -2.916440        -0.174791         2.929540
 H         0.007995         0.024002         3.129971
 H        -1.101629        -1.300437         2.269943
