19
Iteration:  3828charge 0 multiplicity 1
 O         0.660517         0.276807         0.175574
 C        -0.573160         0.405862         0.784805
 C        -1.798208         0.020465         0.064866
 C        -2.519515         1.020231         0.944424
 C        -1.245368         1.849001         0.887984
 C        -1.037407         2.569494         2.236904
 O        -1.897072         1.688063         3.180378
 C        -2.149854         0.494061         2.390272
 C        -0.800847        -0.244238         2.152287
 H         0.401046        -0.170759        -0.575891
 H        -1.764450         0.149445        -1.027621
 H        -2.237160        -1.071687         0.030149
 H        -3.506283         1.482373         0.795439
 H        -1.087504         2.548660        -0.042061
 H         0.089649         2.529591         2.530337
 H        -1.501066         3.514431         2.301086
 H        -2.986071        -0.064238         2.784671
 H        -0.189358         0.134631         2.944503
 H        -0.833020        -1.357564         2.046442
