19
Iteration:  2490charge 0 multiplicity 1
 O         0.662437         0.216156         0.083807
 C        -0.507444         0.434971         0.802137
 C        -1.863302         0.058148         0.028099
 C        -2.529544         0.906193         1.021740
 C        -1.340319         1.840554         0.940917
 C        -1.162261         2.653184         2.147094
 O        -1.770914         1.682948         3.123769
 C        -2.167124         0.497662         2.435295
 C        -0.741596        -0.212917         2.118495
 H         1.288765        -0.139709         0.879856
 H        -1.919528         0.476071        -0.989288
 H        -2.033615        -1.126174        -0.059540
 H        -3.493676         1.230710         0.693086
 H        -1.400921         2.300577         0.030812
 H        -0.136492         2.889422         2.464747
 H        -1.841977         3.568122         2.342381
 H        -2.806614         0.059876         3.257351
 H        -0.085842         0.070340         3.032158
 H        -0.986282        -1.340172         2.106621
