19
Iteration:  1814charge 0 multiplicity 1
 O         0.724902         0.197762         0.135649
 C        -0.589114         0.452945         0.750223
 C        -1.974078         0.036794        -0.019086
 C        -2.484477         0.974336         1.034263
 C        -1.169949         1.906770         0.900623
 C        -1.185056         2.549932         2.254835
 O        -1.929652         1.746601         3.141871
 C        -2.042498         0.450582         2.438461
 C        -0.765963        -0.201504         2.130171
 H         0.906236        -0.672707         0.233182
 H        -1.979405         0.353189        -1.175665
 H        -2.223851        -1.073298        -0.038655
 H        -3.549359         1.344624         0.941971
 H        -1.240591         2.466221        -0.053871
 H        -0.141592         2.784648         2.666242
 H        -1.576900         3.521583         2.210239
 H        -2.654529        -0.222546         3.166507
 H         0.024721         0.152853         2.718597
 H        -0.649762        -1.289313         2.030466
