19
Iteration:  2568charge 0 multiplicity 1
 O         0.568907         0.288431        -0.031825
 C        -0.525119         0.400493         0.764681
 C        -1.763247        -0.031321         0.045091
 C        -2.462452         0.898427         0.943703
 C        -1.238776         1.826144         0.915999
 C        -1.083826         2.500901         2.227005
 O        -1.924547         1.801050         3.207540
 C        -2.164087         0.510783         2.467047
 C        -0.838441        -0.212881         2.218608
 H         1.255905         0.812013         0.373894
 H        -1.769234         0.225202        -1.006823
 H        -2.058024        -1.202714         0.054650
 H        -3.564623         1.129438         0.795400
 H        -1.017301         2.537320         0.144788
 H        -0.073504         2.554807         2.646415
 H        -1.422386         3.598330         2.116101
 H        -2.923281         0.080033         3.097796
 H         0.054200         0.030621         2.913244
 H        -0.782540        -1.398834         2.075584
