19
Iteration:    71charge 0 multiplicity 1
 O         0.695398         0.370150         0.101855
 C        -0.545093         0.409092         0.782511
 C        -1.866733        -0.035872        -0.055157
 C        -2.487558         1.062142         0.835970
 C        -1.136551         1.817381         0.971496
 C        -1.056438         2.492532         2.319787
 O        -1.779050         1.681795         3.218796
 C        -2.273709         0.554942         2.398549
 C        -0.964691        -0.267100         2.158159
 H         1.038026        -0.463307         0.162554
 H        -1.971202         0.224092        -1.187654
 H        -2.234138        -1.092629         0.119608
 H        -3.480909         1.578645         0.720716
 H        -0.887682         2.521496         0.136978
 H        -0.014540         2.566199         2.782448
 H        -1.508172         3.451334         2.236678
 H        -3.121032         0.131409         2.997940
 H        -0.255955        -0.218646         3.039720
 H        -1.146034        -1.411650         1.936928
