19
Iteration:   369charge 0 multiplicity 1
 O         0.574804         0.279689         0.170925
 C        -0.542243         0.407428         0.880444
 C        -1.829243         0.053722         0.037756
 C        -2.513892         1.051026         0.887883
 C        -1.205822         1.875821         0.899063
 C        -1.084213         2.502989         2.285539
 O        -1.784211         1.667996         3.114706
 C        -2.175042         0.558023         2.385460
 C        -0.896538        -0.296554         2.090166
 H         1.347519        -0.116695         0.815211
 H        -1.686227         0.541672        -0.883443
 H        -2.181710        -1.020077        -0.186150
 H        -3.502532         1.399267         0.630542
 H        -0.895311         2.386632         0.005422
 H         0.061293         2.487374         2.561124
 H        -1.513350         3.625161         2.209802
 H        -2.928343        -0.032628         2.902646
 H        -0.212283        -0.374756         2.946377
 H        -1.072885        -1.376056         1.844932
