19
Iteration:  3021
 O         0.691567         0.184345         0.168794
 C        -0.550252         0.444045         0.680959
 C        -1.819772        -0.059550         0.012144
 C        -2.512888         0.951283         0.989120
 C        -1.303443         1.921593         0.853355
 C        -1.170363         2.622945         2.288622
 O        -1.848588         1.701504         3.157242
 C        -2.135123         0.508108         2.502191
 C        -0.746874        -0.163753         2.124166
 H         0.766747        -0.603731        -0.350861
 H        -1.888987         0.173045        -1.100729
 H        -2.150469        -1.140326         0.137183
 H        -3.436078         1.473411         0.709231
 H        -1.250419         2.513598        -0.043265
 H        -0.127390         2.824161         2.596981
 H        -1.854395         3.554591         2.364518
 H        -2.977057         0.010137         3.067757
 H        -0.002359         0.168400         2.896636
 H        -0.593618        -1.332389         2.115383
