19
Iteration:  3975charge 0 multiplicity 1
 O         0.747882         0.178682         0.190560
 C        -0.544302         0.415039         0.713403
 C        -1.769308         0.031000        -0.033706
 C        -2.630646         1.047974         0.969846
 C        -1.259400         1.841770         0.956355
 C        -1.085659         2.524862         2.268889
 O        -1.898865         1.683584         3.247998
 C        -2.166898         0.546525         2.413191
 C        -0.825983        -0.188580         2.080103
 H         0.570879         0.002467        -0.859744
 H        -1.747829         0.383664        -1.097830
 H        -1.956717        -1.020384         0.056090
 H        -3.630403         1.414490         0.807166
 H        -1.220602         2.446862         0.167043
 H         0.012031         2.656833         2.481790
 H        -1.453376         3.564126         2.369415
 H        -2.819070        -0.046307         3.090656
 H         0.092757        -0.069414         2.743523
 H        -0.939385        -1.244630         1.831413
