19
Iteration:  4087charge 0 multiplicity 1
 O         0.752393         0.279110         0.189596
 C        -0.558471         0.418502         0.744732
 C        -1.965671        -0.000418        -0.008114
 C        -2.565945         1.014117         0.960211
 C        -1.182090         1.841887         0.896596
 C        -0.983316         2.459805         2.270462
 O        -2.009050         1.704548         3.138848
 C        -2.151118         0.486184         2.407547
 C        -0.752966        -0.187195         2.178066
 H         0.726938         0.531276        -0.673839
 H        -2.006002         0.211378        -1.080266
 H        -2.287736        -1.003791         0.146927
 H        -3.559816         1.605831         1.045811
 H        -0.928091         2.539682         0.095561
 H         0.097537         2.410432         2.603831
 H        -1.301235         3.583211         2.401749
 H        -2.858291        -0.260686         2.932796
 H        -0.001611         0.075135         2.901697
 H        -0.757151        -1.318749         1.992924
