19
Iteration:  3598charge 0 multiplicity 1
 O         0.729149         0.238352         0.133030
 C        -0.557699         0.444735         0.771728
 C        -1.855388        -0.023273         0.113819
 C        -2.551270         0.952511         1.029480
 C        -1.293713         1.901285         0.790969
 C        -1.203656         2.629972         2.141304
 O        -1.773203         1.658340         3.160061
 C        -2.129314         0.477935         2.421331
 C        -0.804243        -0.165106         2.190892
 H         1.186187        -0.666783         0.468528
 H        -1.900131         0.335671        -0.900714
 H        -2.243766        -1.098280         0.012754
 H        -3.462997         1.434259         0.811339
 H        -1.249032         2.470462        -0.221521
 H        -0.185561         2.674314         2.464945
 H        -1.710094         3.607659         2.202946
 H        -2.938158        -0.043008         2.929452
 H        -0.169483         0.165114         3.010404
 H        -0.768473        -1.331842         2.030824
