19
Iteration:  4411charge 0 multiplicity 1
 O         0.741482         0.167515         0.156020
 C        -0.571113         0.377642         0.677310
 C        -1.944613         0.069898        -0.038342
 C        -2.463131         1.056882         1.035766
 C        -1.135177         1.882143         0.922686
 C        -1.228528         2.528269         2.293064
 O        -1.866077         1.708526         3.224390
 C        -2.159404         0.420088         2.400795
 C        -0.777154        -0.245366         2.114294
 H         1.013671         0.729285        -0.712838
 H        -1.884295         0.504639        -1.050863
 H        -2.236623        -0.940659        -0.006942
 H        -3.473270         1.603931         0.979850
 H        -1.006354         2.510961        -0.042855
 H        -0.266999         3.049630         2.749515
 H        -1.867132         3.381980         2.075713
 H        -2.945919        -0.201675         2.994030
 H        -0.101123         0.131972         2.891553
 H        -0.779215        -1.363442         2.188588
