19
Iteration:  2856
 O         0.545345         0.245304         0.054968
 C        -0.579199         0.457211         0.801990
 C        -1.786062        -0.104829         0.060216
 C        -2.481794         0.983870         0.925302
 C        -1.215694         1.883751         0.911782
 C        -1.118875         2.575550         2.278016
 O        -1.825957         1.733092         3.146526
 C        -2.140418         0.454362         2.381998
 C        -0.822530        -0.206430         2.204233
 H         1.402769         0.747229         0.315013
 H        -1.765737         0.095415        -1.062562
 H        -2.035861        -1.147622         0.306067
 H        -3.469277         1.300563         0.758688
 H        -1.155574         2.536139         0.017088
 H        -0.110922         2.622616         2.639577
 H        -1.617767         3.671602         2.146630
 H        -2.969922        -0.070462         2.801623
 H         0.005235        -0.047777         2.877896
 H        -0.956970        -1.376804         2.223437
