19
Iteration:  2118charge 0 multiplicity 1
 O         0.655812         0.200747         0.139531
 C        -0.563055         0.460464         0.723764
 C        -1.912913        -0.085203         0.038182
 C        -2.568444         1.000606         1.032887
 C        -1.327183         1.949675         0.855039
 C        -1.061605         2.472892         2.232047
 O        -1.875295         1.728339         3.122210
 C        -2.122040         0.492373         2.393576
 C        -0.671094        -0.098635         2.179306
 H         1.018179        -0.439006         0.674208
 H        -1.781654         0.323347        -1.019965
 H        -2.084772        -1.164428         0.039459
 H        -3.585647         1.215451         0.914398
 H        -1.407630         2.465047        -0.037754
 H         0.000464         2.393325         2.472444
 H        -1.360549         3.459972         2.480874
 H        -2.909138        -0.023466         2.959090
 H         0.110028         0.296414         2.866231
 H        -0.669343        -1.184844         2.013845
