19
Iteration:  2751charge 0 multiplicity 1
 O         0.707894         0.351569         0.118392
 C        -0.555666         0.372680         0.736678
 C        -1.913797        -0.050567         0.077616
 C        -2.515207         1.022146         1.012633
 C        -1.179954         1.745965         0.928135
 C        -1.234769         2.556790         2.203837
 O        -1.847495         1.769994         3.179226
 C        -2.112947         0.549767         2.413548
 C        -0.750781        -0.272374         2.115172
 H         1.025415        -0.507933        -0.333583
 H        -1.921348         0.155727        -0.982830
 H        -2.187554        -1.108010         0.231969
 H        -3.587783         1.359289         0.821928
 H        -0.905938         2.372700         0.115774
 H        -0.256914         2.996593         2.494542
 H        -1.839337         3.393453         1.966683
 H        -2.930371        -0.046121         3.006492
 H        -0.104640         0.168326         2.922169
 H        -0.791246        -1.306751         2.159146
