19
Iteration:  1532charge 0 multiplicity 1
 O         0.718355         0.115513         0.072140
 C        -0.585445         0.372326         0.672971
 C        -1.903842         0.048566        -0.038964
 C        -2.450392         1.033881         0.988332
 C        -1.245184         1.862691         0.956384
 C        -1.203909         2.512919         2.373515
 O        -1.894619         1.726468         3.239510
 C        -2.081749         0.555405         2.374303
 C        -0.779907        -0.219680         2.056400
 H         1.368212         0.639410         0.784481
 H        -1.992003         0.432113        -1.005725
 H        -2.352776        -1.025817        -0.106784
 H        -3.514684         1.396165         0.824511
 H        -0.930622         2.449691         0.080897
 H        -0.142173         2.782382         2.678353
 H        -1.682941         3.571024         2.360209
 H        -2.936710        -0.024805         2.885668
 H        -0.134852         0.172517         2.794301
 H        -0.750455        -1.357634         2.130985
