19
Iteration:  3710
 O         0.709308         0.270391         0.207369
 C        -0.572663         0.424593         0.708673
 C        -1.871800         0.054761         0.084955
 C        -2.475778         0.943458         1.108122
 C        -1.189918         1.790884         0.954882
 C        -1.109096         2.652166         2.154815
 O        -1.900419         1.745801         3.076040
 C        -2.181371         0.415338         2.465920
 C        -0.799071        -0.260396         2.084466
 H         0.658842        -0.186040        -0.554560
 H        -1.971778         0.338824        -0.996476
 H        -2.056273        -1.057785         0.147358
 H        -3.384337         1.556734         0.900545
 H        -1.137748         2.271915        -0.149616
 H        -0.121998         2.825454         2.565288
 H        -1.649883         3.657899         2.027743
 H        -2.955926        -0.084039         3.040559
 H        -0.038221         0.089891         2.850183
 H        -0.780521        -1.411626         1.912460
