19
Iteration:  1685
 O         0.648399         0.227306         0.193235
 C        -0.517099         0.369060         0.742535
 C        -1.920172        -0.036506        -0.020737
 C        -2.509080         0.998690         0.991448
 C        -1.202767         1.909094         0.968157
 C        -1.135410         2.608308         2.296854
 O        -1.899498         1.671835         3.118277
 C        -2.070249         0.540153         2.379180
 C        -0.746372        -0.265931         2.130476
 H         0.704183         0.504161        -0.833478
 H        -1.896207         0.276469        -0.965891
 H        -2.447795        -0.966624         0.115761
 H        -3.543680         1.494368         0.928090
 H        -0.835599         2.546312         0.138874
 H        -0.221045         2.594930         2.729262
 H        -1.615155         3.642682         2.219169
 H        -2.924653         0.006290         2.940193
 H         0.104153        -0.055784         2.756651
 H        -0.984121        -1.399815         2.149586
