19
Iteration:  4205
 O         0.648107         0.318982         0.201825
 C        -0.570385         0.472885         0.759132
 C        -1.892268        -0.026631        -0.034738
 C        -2.486857         0.968060         0.985376
 C        -1.218930         1.866375         0.861294
 C        -0.940645         2.450462         2.267840
 O        -1.906386         1.732404         3.097971
 C        -2.156259         0.410504         2.459039
 C        -0.889212        -0.237986         2.157167
 H         0.876970         1.083949        -0.419717
 H        -1.575845         0.373609        -1.105034
 H        -2.200938        -1.078397         0.029152
 H        -3.486872         1.466635         0.843110
 H        -1.308083         2.441900         0.028882
 H         0.163164         2.319129         2.491294
 H        -1.209801         3.482273         2.694134
 H        -2.961260        -0.064456         3.089473
 H        -0.259162         0.126894         2.940740
 H        -0.947723        -1.313201         2.163060
