19
Iteration:  4216
 O         0.636926         0.314480         0.200792
 C        -0.616450         0.446687         0.776027
 C        -1.825941        -0.025614        -0.026828
 C        -2.516318         0.949144         0.918314
 C        -1.237142         1.847860         0.931141
 C        -0.980913         2.403113         2.302442
 O        -1.885545         1.716209         3.130116
 C        -2.186391         0.551539         2.447465
 C        -0.808088        -0.194153         2.147743
 H         0.675097         1.041236        -0.580890
 H        -1.858322         0.350633        -1.162977
 H        -2.123689        -1.088308        -0.068827
 H        -3.540607         1.280731         0.614870
 H        -1.096571         2.438582         0.097798
 H         0.051489         2.085703         2.624988
 H        -1.067444         3.566927         2.302444
 H        -2.914663        -0.050016         3.065194
 H        -0.013239        -0.092881         2.865291
 H        -0.976095        -1.258332         2.012495
