19
Iteration:  3225charge 0 multiplicity 1
 O         0.621029         0.217907         0.038203
 C        -0.558269         0.397124         0.781469
 C        -1.794898         0.002349         0.059404
 C        -2.561424         0.922424         0.988206
 C        -1.258860         1.831186         0.915154
 C        -1.064251         2.545762         2.257566
 O        -1.996487         1.801144         3.071006
 C        -2.091893         0.504067         2.466171
 C        -0.735267        -0.244656         2.154349
 H         1.419265         0.608241         0.540265
 H        -1.802076         0.314946        -0.999131
 H        -1.901837        -1.032298         0.148852
 H        -3.513454         1.442378         1.107012
 H        -1.277059         2.599335        -0.013067
 H        -0.031916         2.463685         2.669455
 H        -1.351587         3.642393         2.157372
 H        -2.816928        -0.060948         3.055890
 H         0.039472         0.016343         2.850906
 H        -0.882207        -1.292916         2.270304
