19
Iteration:  3782charge 0 multiplicity 1
 O         0.687543         0.187522         0.175328
 C        -0.590618         0.396175         0.756719
 C        -1.883667         0.006254         0.008826
 C        -2.521190         1.037565         0.953955
 C        -1.287538         1.893326         0.911018
 C        -1.057763         2.513003         2.245054
 O        -1.968742         1.775673         3.122115
 C        -2.104858         0.483946         2.466742
 C        -0.712201        -0.254473         2.101080
 H         1.206600         0.913573         0.298122
 H        -1.927685         0.166678        -1.033509
 H        -2.291393        -1.038578         0.066538
 H        -3.527478         1.366962         0.931868
 H        -1.273885         2.379386        -0.059876
 H        -0.018091         2.225315         2.564658
 H        -1.214447         3.567690         2.298286
 H        -2.743543        -0.086701         3.144734
 H         0.139193         0.013427         2.681276
 H        -0.855924        -1.320606         2.039953
