19
Iteration:  2049
 O         0.707014         0.388847         0.169367
 C        -0.559939         0.391860         0.782007
 C        -1.959417        -0.054325         0.072558
 C        -2.549772         0.953882         1.038894
 C        -1.237799         1.808626         0.866714
 C        -1.093144         2.576702         2.181033
 O        -1.788985         1.732560         3.061328
 C        -2.170984         0.486837         2.443544
 C        -0.789385        -0.258409         2.178663
 H         1.001714        -0.506360        -0.038452
 H        -1.877263         0.333582        -0.972652
 H        -2.290170        -1.195935         0.147186
 H        -3.490601         1.568268         1.053271
 H        -1.144578         2.408113        -0.104169
 H        -0.030012         2.817134         2.549472
 H        -1.591103         3.487521         2.085567
 H        -2.953036        -0.035259         3.012874
 H         0.008117         0.129895         2.910078
 H        -0.887891        -1.297998         1.918246
