19
Iteration:   205charge 0 multiplicity 1
 O         0.770382         0.195963         0.242062
 C        -0.582037         0.460263         0.726571
 C        -1.858352         0.015377        -0.092852
 C        -2.619769         0.902434         0.942342
 C        -1.188143         1.831096         0.951652
 C        -0.995601         2.523409         2.268443
 O        -1.755299         1.718615         3.184423
 C        -2.235291         0.535035         2.416887
 C        -0.999936        -0.179447         2.054861
 H         1.204282         0.985915         0.224137
 H        -2.108976         0.433799        -1.032897
 H        -2.028047        -1.150265        -0.158428
 H        -3.627831         1.286908         0.868092
 H        -1.038149         2.519673         0.117340
 H         0.062486         2.614485         2.663505
 H        -1.352072         3.475282         2.289590
 H        -3.013868         0.089031         2.962494
 H        -0.290356        -0.180373         2.892816
 H        -1.188538        -1.262996         2.148211
