19
Iteration:  4232charge 0 multiplicity 1
 O         0.776766         0.293384         0.188360
 C        -0.525621         0.394651         0.690646
 C        -1.887045        -0.036211        -0.013339
 C        -2.615350         1.014178         1.003747
 C        -1.244794         1.806849         0.913918
 C        -0.980930         2.462848         2.311344
 O        -1.949351         1.770144         3.240203
 C        -2.189202         0.508773         2.366580
 C        -0.816936        -0.240828         2.064355
 H         0.772366         0.556364        -0.791991
 H        -1.849635         0.366236        -0.970796
 H        -2.069152        -1.119246         0.040264
 H        -3.608283         1.465555         0.958406
 H        -1.063169         2.575266         0.039128
 H         0.083871         2.479332         2.570904
 H        -1.286534         3.422731         2.486730
 H        -2.982597        -0.015775         2.852875
 H        -0.093333         0.198486         2.805737
 H        -0.918307        -1.361878         2.124299
