19
Iteration:  2882charge 0 multiplicity 1
 O         0.709849         0.136759        -0.004535
 C        -0.527938         0.382562         0.738933
 C        -1.827551         0.026175         0.040602
 C        -2.501642         0.959597         1.002917
 C        -1.209833         1.843922         0.896115
 C        -1.224937         2.658761         2.222082
 O        -1.886616         1.774073         3.220018
 C        -2.141452         0.433631         2.502968
 C        -0.801727        -0.217863         2.132067
 H         1.486512         0.553441         0.480834
 H        -1.850347         0.449933        -0.932959
 H        -2.355283        -0.923380        -0.017755
 H        -3.497080         1.427423         0.692230
 H        -1.228268         2.421856         0.004096
 H        -0.222497         2.784366         2.785513
 H        -1.768835         3.589088         2.026619
 H        -2.986476        -0.205061         3.076996
 H         0.093782         0.029963         2.868007
 H        -0.915412        -1.240239         2.149718
