19
Iteration:  3876charge 0 multiplicity 1
 O         0.666505         0.243738         0.167349
 C        -0.561763         0.374243         0.715716
 C        -1.910988         0.073367        -0.051764
 C        -2.501392         0.987945         1.076897
 C        -1.188442         1.803490         0.870742
 C        -1.136347         2.557738         2.177718
 O        -1.849134         1.739609         3.265918
 C        -2.202945         0.492418         2.424786
 C        -0.775289        -0.242450         2.056182
 H         1.309955        -0.090218         0.950700
 H        -1.846256         0.528834        -1.047728
 H        -2.075886        -0.904568        -0.314031
 H        -3.401339         1.571119         0.863712
 H        -0.958783         2.396405         0.056937
 H        -0.161987         2.706526         2.592971
 H        -1.686501         3.547803         2.020021
 H        -2.898333        -0.203284         2.939664
 H         0.029115        -0.023270         2.857110
 H        -0.959326        -1.315968         1.919581
