19
Iteration:   435
 O         0.561856         0.106860         0.050709
 C        -0.578311         0.425425         0.773361
 C        -1.726162         0.113796        -0.049635
 C        -2.422530         1.006973         0.947275
 C        -1.263928         1.904979         0.998732
 C        -1.068167         2.487824         2.333196
 O        -1.954680         1.790552         3.105097
 C        -2.157504         0.452707         2.365611
 C        -0.796015        -0.278133         2.189407
 H         1.411558         0.231594         0.355893
 H        -1.891513         0.520942        -1.002726
 H        -2.084586        -0.945777        -0.044337
 H        -3.463402         1.376585         0.748257
 H        -1.108401         2.699402         0.278430
 H        -0.004956         2.397698         2.707756
 H        -1.367192         3.651669         2.490280
 H        -3.000646         0.081068         3.002243
 H        -0.221993         0.152814         3.028006
 H        -0.734108        -1.384783         2.251491
