19
Iteration:  2537
 O         0.671539         0.274106         0.034077
 C        -0.531324         0.418170         0.707368
 C        -1.899932        -0.045265         0.068413
 C        -2.546274         0.921541         1.023988
 C        -1.252156         1.856136         0.916939
 C        -1.041802         2.501746         2.259240
 O        -1.953634         1.791459         3.119752
 C        -2.147233         0.455283         2.415919
 C        -0.762804        -0.180046         2.180686
 H         1.363014         0.579973         0.697507
 H        -1.995040         0.236366        -0.996556
 H        -2.182364        -1.190796         0.209638
 H        -3.640087         1.235783         0.921274
 H        -1.058005         2.569045         0.057913
 H         0.021107         2.418810         2.701906
 H        -1.306237         3.535346         2.202663
 H        -2.856176        -0.013383         3.047419
 H        -0.007461         0.238758         2.796428
 H        -0.548918        -1.281363         2.034450
