19
Iteration:  3875charge 0 multiplicity 1
 O         0.668373         0.242623         0.172368
 C        -0.561273         0.383705         0.710836
 C        -1.908598         0.074423        -0.048044
 C        -2.493603         0.993781         1.084640
 C        -1.186409         1.796737         0.870423
 C        -1.136428         2.558472         2.169655
 O        -1.852280         1.735745         3.274350
 C        -2.206133         0.491934         2.423563
 C        -0.781102        -0.235404         2.054735
 H         1.272651        -0.121665         0.910235
 H        -1.859800         0.524799        -1.055571
 H        -2.061775        -0.942898        -0.329550
 H        -3.403500         1.570215         0.855703
 H        -0.971373         2.398836         0.005929
 H        -0.144837         2.707504         2.621868
 H        -1.696972         3.503164         1.990768
 H        -2.876550        -0.215432         2.940898
 H         0.043471        -0.019548         2.829023
 H        -0.973496        -1.313900         1.909394
