19
Iteration:    33
 O         0.766194         0.265346         0.333609
 C        -0.583780         0.476170         0.689871
 C        -2.020035         0.156076        -0.203559
 C        -2.596018         0.988169         0.973931
 C        -1.240205         1.823023         0.903258
 C        -1.023812         2.392863         2.250984
 O        -1.792035         1.738610         3.147823
 C        -2.120858         0.482083         2.448804
 C        -0.878290        -0.291585         2.106233
 H         1.274299        -0.045333         1.128671
 H        -2.161942         0.579924        -1.148999
 H        -2.267036        -0.886488        -0.161345
 H        -3.545517         1.485994         0.866390
 H        -0.961965         2.558621         0.161662
 H         0.029465         2.278132         2.429970
 H        -1.249020         3.497267         2.232012
 H        -2.904774         0.017371         3.013414
 H        -0.124850        -0.048552         2.836616
 H        -1.012356        -1.312943         1.916621
