19
Iteration:  3101charge 0 multiplicity 1
 O         0.723084         0.400627         0.194415
 C        -0.596984         0.475972         0.768015
 C        -1.887077        -0.085364         0.102806
 C        -2.579253         0.959152         1.033263
 C        -1.254687         1.871266         0.852796
 C        -1.025039         2.423236         2.131005
 O        -1.861829         1.720617         3.088293
 C        -2.216412         0.462480         2.457571
 C        -0.770872        -0.163318         2.128735
 H         1.012908        -0.512196         0.200606
 H        -1.830144         0.132773        -0.938267
 H        -2.181267        -1.124866         0.263172
 H        -3.528851         1.429482         0.711085
 H        -1.198198         2.464305        -0.001578
 H         0.018599         2.333038         2.294715
 H        -1.251312         3.531083         2.391119
 H        -3.031271        -0.081800         2.998366
 H         0.031791         0.347561         2.756061
 H        -0.754758        -1.263618         2.123695
