19
Iteration:   303
 O         0.637378         0.162659         0.151101
 C        -0.595370         0.475360         0.768288
 C        -1.864469         0.006805         0.003431
 C        -2.473158         1.091634         1.011684
 C        -1.199482         1.941714         0.879564
 C        -1.018201         2.563282         2.290989
 O        -1.915732         1.629011         3.076321
 C        -2.193887         0.438474         2.355846
 C        -0.827850        -0.193851         2.150023
 H         1.234677        -0.153773         0.757410
 H        -1.761009         0.415442        -0.944012
 H        -2.164011        -1.110874         0.172716
 H        -3.388968         1.600189         0.814423
 H        -1.114798         2.515089        -0.031838
 H         0.052342         2.348523         2.677360
 H        -1.449491         3.537908         2.590669
 H        -2.965587        -0.061349         2.868059
 H        -0.110487         0.174124         2.919516
 H        -0.710752        -1.306132         2.023419
