19
Iteration:  3720charge 0 multiplicity 1
 O         0.702746         0.298245         0.185828
 C        -0.566302         0.406376         0.778017
 C        -1.889096        -0.000321         0.011913
 C        -2.468032         0.941517         1.068424
 C        -1.123416         1.808701         0.884177
 C        -1.146072         2.653572         2.179379
 O        -1.899444         1.732122         3.120529
 C        -2.077874         0.482238         2.441866
 C        -0.843248        -0.244322         2.139222
 H         0.659540        -0.451427        -0.329026
 H        -2.096173         0.474525        -0.982598
 H        -2.410636        -1.049917         0.092546
 H        -3.517988         1.238927         0.935590
 H        -1.250086         2.484438        -0.099934
 H        -0.176128         2.871540         2.698009
 H        -1.768619         3.583316         2.099541
 H        -2.813506        -0.127959         2.931739
 H         0.086115        -0.185913         2.757666
 H        -1.082347        -1.382551         1.976784
