19
Iteration:   794charge 0 multiplicity 1
 O         0.730367         0.347417         0.243319
 C        -0.595973         0.441130         0.737839
 C        -1.961864         0.007693        -0.063686
 C        -2.595071         1.010606         0.945287
 C        -1.141995         1.813054         0.872443
 C        -1.026113         2.442920         2.236359
 O        -1.818811         1.699909         3.195276
 C        -2.188909         0.521335         2.421403
 C        -0.807068        -0.228834         2.125413
 H         0.957748        -0.507950         0.097948
 H        -1.865110         0.518700        -1.028032
 H        -2.480224        -0.963284        -0.112056
 H        -3.616267         1.469044         0.727276
 H        -0.994285         2.500379         0.032924
 H        -0.002184         2.533161         2.646460
 H        -1.526574         3.507229         2.237676
 H        -2.926633        -0.013557         3.126271
 H        -0.144743        -0.103780         2.985049
 H        -1.071520        -1.279220         1.983883
