19
Iteration:  2825charge 0 multiplicity 1
 O         0.762677         0.319064         0.127613
 C        -0.575072         0.416302         0.703892
 C        -1.927382        -0.047281         0.004851
 C        -2.573892         0.960660         1.046557
 C        -1.278901         1.767893         0.878414
 C        -1.072094         2.433028         2.203263
 O        -1.883020         1.793789         3.141953
 C        -2.143107         0.479424         2.423075
 C        -0.768043        -0.154439         2.157521
 H         1.398079         0.410741         0.789901
 H        -2.122545         0.379331        -1.024399
 H        -2.207788        -1.084784         0.086768
 H        -3.545411         1.370919         0.983490
 H        -1.322135         2.463186         0.055553
 H        -0.040818         2.417289         2.686489
 H        -1.253300         3.584358         2.156001
 H        -3.004403        -0.084776         2.930269
 H         0.143188         0.237129         2.704718
 H        -0.952151        -1.257788         2.313446
