19
Iteration:  3097charge 0 multiplicity 1
 O         0.736018         0.397414         0.177851
 C        -0.595019         0.480278         0.803930
 C        -1.871483        -0.080991         0.117059
 C        -2.588123         0.969592         1.016273
 C        -1.252012         1.862923         0.846910
 C        -1.028461         2.450476         2.156694
 O        -1.866111         1.726302         3.099534
 C        -2.241685         0.480953         2.454407
 C        -0.736257        -0.184456         2.122226
 H         0.930914        -0.629716         0.120869
 H        -1.909612         0.100983        -1.013059
 H        -2.201747        -1.187066         0.195335
 H        -3.546225         1.402572         0.694638
 H        -1.420395         2.457312        -0.082896
 H         0.086664         2.259558         2.302456
 H        -1.234054         3.505522         2.295154
 H        -3.038091        -0.110522         2.967675
 H        -0.060244         0.315262         2.840333
 H        -0.663004        -1.318622         2.046898
