19
Iteration:   603charge 0 multiplicity 1
 O         0.640167         0.078331         0.056456
 C        -0.511198         0.481162         0.716493
 C        -1.809485         0.011612        -0.077247
 C        -2.532279         1.030117         0.975128
 C        -1.209765         1.938628         0.882372
 C        -1.040861         2.586109         2.350159
 O        -1.923259         1.690897         3.259423
 C        -2.207546         0.510335         2.442971
 C        -0.832932        -0.250898         2.134876
 H         1.479913         0.312012         0.629809
 H        -1.856650         0.456174        -1.131202
 H        -1.902055        -1.053873        -0.027733
 H        -3.430953         1.501962         0.726518
 H        -1.379718         2.576329         0.028924
 H        -0.081349         2.473725         2.696898
 H        -1.436543         3.678583         2.275929
 H        -3.085685         0.037827         2.843246
 H        -0.116862        -0.162031         2.984650
 H        -0.830784        -1.310458         1.834508
