19
Iteration:   463
 O         0.732319         0.228865         0.070640
 C        -0.602175         0.378124         0.680204
 C        -1.880580        -0.019297        -0.006698
 C        -2.510405         1.080860         0.931726
 C        -1.121178         1.818565         0.869445
 C        -1.050378         2.552199         2.312430
 O        -1.923721         1.664380         3.245494
 C        -2.143196         0.554476         2.395413
 C        -0.902327        -0.209380         2.155724
 H         1.354530         0.412541         0.685624
 H        -2.048020         0.257264        -1.094476
 H        -2.183037        -1.050087         0.253558
 H        -3.498766         1.461632         0.822857
 H        -0.905489         2.520159         0.054424
 H        -0.109330         2.719512         2.965042
 H        -1.609999         3.414205         2.234766
 H        -2.910029         0.006887         2.899265
 H        -0.186139        -0.136783         2.973060
 H        -1.211321        -1.258130         2.094216
