19
Iteration:   679
 O         0.661701         0.257218         0.162403
 C        -0.593045         0.514957         0.765677
 C        -1.884808         0.021993        -0.059691
 C        -2.519720         0.949842         1.006516
 C        -1.206733         1.963750         0.908164
 C        -0.947705         2.533372         2.284653
 O        -1.866117         1.688494         3.097905
 C        -2.198419         0.443335         2.412249
 C        -0.867243        -0.280091         2.136619
 H         1.003393        -0.307414         0.857455
 H        -1.814091         0.483306        -1.089973
 H        -2.163468        -1.017490        -0.062528
 H        -3.467314         1.356412         0.988951
 H        -1.142068         2.550820         0.022660
 H         0.148140         2.508493         2.496529
 H        -1.419627         3.663295         2.348846
 H        -3.002891        -0.000467         2.948861
 H        -0.144598        -0.282970         2.990215
 H        -1.009910        -1.339674         1.891877
