19
Iteration:   419charge 0 multiplicity 1
 O         0.651217         0.065112         0.080989
 C        -0.569497         0.415165         0.751684
 C        -1.884085         0.072303        -0.073540
 C        -2.537243         1.014024         0.996660
 C        -1.141587         1.933022         0.926126
 C        -1.037099         2.549457         2.381999
 O        -2.058530         1.714407         3.119471
 C        -2.101868         0.502169         2.427908
 C        -0.741388        -0.176047         2.131606
 H         1.263807         0.296896         0.727942
 H        -1.664010         0.577229        -1.088836
 H        -2.202573        -0.960281        -0.178730
 H        -3.527360         1.461188         0.934761
 H        -1.040993         2.493735        -0.023816
 H        -0.047501         2.366520         2.761051
 H        -1.313383         3.542811         2.444228
 H        -2.865279        -0.169076         2.822811
 H         0.103841        -0.046883         2.839310
 H        -0.940013        -1.251319         2.052509
