19
Iteration:  1345charge 0 multiplicity 1
 O         0.662032         0.108250         0.034921
 C        -0.527334         0.461351         0.658468
 C        -1.837684         0.065624        -0.017267
 C        -2.494866         0.997581         0.913543
 C        -1.317436         1.869781         0.895433
 C        -1.017218         2.475947         2.338197
 O        -1.987521         1.695359         3.226010
 C        -2.132743         0.495258         2.493763
 C        -0.806339        -0.120257         2.176240
 H         1.561933         0.276187         0.584569
 H        -1.817787         0.544633        -1.041323
 H        -2.122524        -1.055042        -0.087507
 H        -3.446411         1.440562         0.703646
 H        -1.320709         2.668506         0.096330
 H         0.037620         2.277890         2.804704
 H        -1.214913         3.475218         2.389355
 H        -2.961396        -0.017500         2.900551
 H        -0.167094         0.270680         2.926219
 H        -0.640891        -1.180452         2.056550
