19
Iteration:  4042charge 0 multiplicity 1
 O         0.762774         0.229688         0.221346
 C        -0.591374         0.475532         0.710333
 C        -1.943637         0.004335        -0.092085
 C        -2.545355         0.921996         0.984522
 C        -1.201525         1.847549         0.952690
 C        -1.045815         2.562909         2.241641
 O        -1.848013         1.712912         3.166568
 C        -2.178702         0.545431         2.475352
 C        -0.821250        -0.294364         2.095693
 H         1.034814         0.989062        -0.144443
 H        -1.997597         0.374522        -1.154034
 H        -2.172695        -1.024124        -0.077972
 H        -3.622823         1.185071         0.786749
 H        -1.216770         2.441695         0.120984
 H        -0.096027         2.574002         2.835543
 H        -1.345440         3.634373         2.131032
 H        -3.010951        -0.035562         2.930688
 H        -0.074289        -0.097157         2.877859
 H        -1.091809        -1.379952         2.086218
