19
Iteration:  1068
 O         0.681594         0.285785         0.180497
 C        -0.609372         0.424404         0.720605
 C        -1.918246         0.102161        -0.029330
 C        -2.530841         1.011171         1.016957
 C        -1.193503         1.835916         0.870432
 C        -1.010116         2.444183         2.237398
 O        -1.930462         1.740666         3.219887
 C        -2.129031         0.442867         2.358866
 C        -0.802018        -0.208139         2.126950
 H         1.194570        -0.532073         0.642356
 H        -2.041854         0.593072        -1.046027
 H        -2.177712        -0.934463         0.005617
 H        -3.530697         1.261844         0.786932
 H        -0.868233         2.434247         0.060412
 H         0.070510         2.571464         2.603063
 H        -1.528008         3.385402         2.227383
 H        -2.856312        -0.155301         2.961931
 H        -0.024218         0.046511         2.858590
 H        -0.837370        -1.210801         1.884097
