19
Iteration:  2035
 O         0.685336         0.367610         0.197142
 C        -0.621203         0.453197         0.716897
 C        -1.827810        -0.071825        -0.004839
 C        -2.559365         0.942841         0.986645
 C        -1.308818         1.827682         0.836508
 C        -1.050463         2.533217         2.149160
 O        -1.780649         1.720960         3.222133
 C        -2.112717         0.552379         2.457481
 C        -0.840180        -0.192371         2.148364
 H         0.858398        -0.666082         0.076969
 H        -2.092209         0.183399        -0.995089
 H        -2.085488        -1.226820         0.190278
 H        -3.627820         1.035537         0.729263
 H        -1.253685         2.434891        -0.080916
 H         0.050154         2.463718         2.348459
 H        -1.405665         3.540930         2.239597
 H        -2.847420         0.053436         3.090112
 H        -0.185964         0.029518         2.943379
 H        -0.928603        -1.285950         2.281399
