19
Iteration:    50
 O         0.668148         0.327993         0.271902
 C        -0.622063         0.435410         0.791557
 C        -1.870952         0.038155         0.026766
 C        -2.527819         1.074709         0.980074
 C        -1.252497         1.921824         0.877697
 C        -0.924408         2.526917         2.244484
 O        -1.802017         1.615835         3.097598
 C        -2.212850         0.492333         2.353535
 C        -0.901734        -0.318818         2.059686
 H         1.203251        -0.310232         0.877979
 H        -1.693002         0.506062        -1.007987
 H        -2.280177        -1.027989        -0.019143
 H        -3.586765         1.476965         0.829255
 H        -1.226028         2.437874        -0.122493
 H         0.186199         2.363118         2.494850
 H        -1.301623         3.558032         2.455617
 H        -2.974292        -0.088640         2.923840
 H        -0.149047        -0.164338         2.924655
 H        -1.182917        -1.385122         1.737617
