19
Iteration:  4861charge 0 multiplicity 1
 O         0.759281         0.075705         0.163832
 C        -0.573161         0.389104         0.663071
 C        -1.879711        -0.029356         0.018440
 C        -2.531604         1.045254         1.059864
 C        -1.240849         1.862908         0.900882
 C        -1.153947         2.609557         2.242960
 O        -1.896263         1.707560         3.227757
 C        -2.131722         0.517523         2.431464
 C        -0.798457        -0.150526         2.073913
 H         1.157207         0.985890        -0.017380
 H        -1.932474         0.392134        -1.023134
 H        -2.165028        -1.113947        -0.161126
 H        -3.547633         1.359597         0.774470
 H        -1.116950         2.442150         0.003745
 H        -0.161965         2.724957         2.668066
 H        -1.607267         3.648091         2.108301
 H        -2.750059        -0.132961         3.011361
 H         0.020684        -0.066358         2.834278
 H        -0.885698        -1.206162         1.868226
