19
Iteration:   956charge 0 multiplicity 1
 O         0.780775         0.247764         0.159238
 C        -0.591080         0.441009         0.737964
 C        -1.879731         0.056472        -0.068333
 C        -2.596994         0.999744         1.003828
 C        -1.255221         1.882329         0.971120
 C        -1.030873         2.515021         2.289050
 O        -1.852770         1.695309         3.177814
 C        -2.178549         0.541574         2.386808
 C        -0.855993        -0.259187         2.070476
 H         1.075315        -0.559262         0.480439
 H        -1.938712         0.347324        -1.076025
 H        -2.187938        -1.025305         0.120090
 H        -3.649039         1.354394         0.849630
 H        -1.183838         2.572830         0.121410
 H         0.131663         2.463514         2.335147
 H        -1.295705         3.546604         2.139413
 H        -2.844769        -0.091832         3.003690
 H        -0.164920         0.050059         2.856609
 H        -1.021571        -1.357260         2.098293
