19
Iteration:  4443charge 0 multiplicity 1
 O         0.644283         0.094770         0.141570
 C        -0.555223         0.443777         0.738317
 C        -1.769251         0.056248         0.009032
 C        -2.513930         1.030442         0.987381
 C        -1.282658         1.960933         0.954395
 C        -1.216448         2.563598         2.326668
 O        -1.852216         1.715540         3.222685
 C        -2.137848         0.465893         2.379116
 C        -0.748027        -0.279427         2.057814
 H         0.884193         0.505828        -0.631937
 H        -1.683827         0.437277        -1.044010
 H        -1.906724        -1.012789         0.016178
 H        -3.502599         1.509754         0.812147
 H        -1.062467         2.468800        -0.029666
 H        -0.172443         2.801146         2.772670
 H        -1.681521         3.483635         2.221064
 H        -2.949895        -0.098029         2.943339
 H        -0.019606        -0.067900         2.868213
 H        -0.793660        -1.387884         1.832367
