19
Iteration:   995
 O         0.724765         0.348270         0.154061
 C        -0.554154         0.380007         0.752534
 C        -1.909765         0.078834         0.035936
 C        -2.576588         1.052104         0.969058
 C        -1.197354         1.795732         0.986037
 C        -1.031676         2.518221         2.224937
 O        -1.865800         1.726786         3.153130
 C        -2.147658         0.476199         2.363818
 C        -0.845954        -0.298117         2.125285
 H         0.784468        -0.686901        -0.102979
 H        -1.780059         0.448319        -1.030371
 H        -2.302201        -0.958012         0.094547
 H        -3.638395         1.453772         0.920758
 H        -0.862990         2.397821         0.068508
 H        -0.097823         2.522056         2.707770
 H        -1.548478         3.530641         2.184940
 H        -2.897355        -0.109668         2.870377
 H        -0.117635         0.094304         2.859680
 H        -1.016122        -1.413086         2.034733
