19
Iteration:  3404
 O         0.633631         0.224573         0.112770
 C        -0.645326         0.406659         0.786915
 C        -1.862727        -0.049279        -0.004824
 C        -2.582244         0.839250         0.976874
 C        -1.239654         1.848772         0.919681
 C        -1.008421         2.575928         2.226340
 O        -1.933877         1.798117         3.126688
 C        -2.116803         0.512949         2.434185
 C        -0.718528        -0.180562         2.192898
 H         1.305834         0.786217         0.560940
 H        -1.854042         0.364256        -0.965930
 H        -1.913861        -1.130525         0.014955
 H        -3.592935         1.056890         0.732654
 H        -1.060388         2.555489        -0.065610
 H         0.045481         2.707338         2.506571
 H        -1.375278         3.575467         2.121582
 H        -2.803553        -0.049753         3.035057
 H         0.100596         0.042748         2.814360
 H        -0.867103        -1.210629         2.041221
