19
Iteration:  3906charge 0 multiplicity 1
 O         0.640419         0.201479         0.105659
 C        -0.565066         0.456574         0.744098
 C        -1.800813        -0.004530         0.011863
 C        -2.507331         0.979340         0.997692
 C        -1.254136         1.930984         0.883327
 C        -1.018192         2.537426         2.283693
 O        -1.861535         1.662026         3.145848
 C        -2.194782         0.481818         2.400725
 C        -0.875867        -0.225498         2.162343
 H         1.231893         0.986066         0.191963
 H        -1.812744         0.284534        -1.071656
 H        -1.941142        -1.142787         0.259097
 H        -3.492951         1.458278         0.803484
 H        -1.180584         2.611647        -0.038388
 H         0.074038         2.609584         2.682153
 H        -1.323381         3.555563         2.404615
 H        -3.003079        -0.112396         2.854353
 H        -0.185468        -0.140507         3.031369
 H        -1.131634        -1.297470         2.063436
