19
Iteration:  3272
 O         0.709813         0.323396         0.193414
 C        -0.591921         0.423186         0.723066
 C        -1.909581        -0.105264         0.078892
 C        -2.575043         1.001696         1.038589
 C        -1.296673         1.791314         0.883663
 C        -1.070807         2.540548         2.205605
 O        -1.830410         1.693391         3.080432
 C        -2.157027         0.533661         2.400615
 C        -0.752188        -0.155006         2.120561
 H         1.351409         0.196919         0.808054
 H        -1.877590         0.177528        -0.966159
 H        -2.316427        -1.153125         0.177468
 H        -3.585555         1.414331         0.852714
 H        -1.140808         2.437139        -0.152822
 H         0.065645         2.590807         2.411095
 H        -1.490247         3.504863         2.158435
 H        -2.879971        -0.111346         2.978329
 H        -0.015542         0.066107         2.876229
 H        -0.838416        -1.242652         2.072734
