19
Iteration:  3817charge 0 multiplicity 1
 O         0.672636         0.276736         0.142587
 C        -0.564120         0.454705         0.763026
 C        -1.863377        -0.016338        -0.026093
 C        -2.481525         0.992572         0.993303
 C        -1.160741         1.833800         0.915755
 C        -1.075710         2.442721         2.229575
 O        -1.896793         1.700794         3.112416
 C        -2.202696         0.517079         2.486123
 C        -0.854717        -0.166753         2.187418
 H         0.657390         0.235912        -0.795111
 H        -1.758666         0.402613        -1.032616
 H        -2.020700        -1.128950         0.252843
 H        -3.439105         1.456882         0.745452
 H        -0.997767         2.517708        -0.024070
 H        -0.032035         2.564716         2.740839
 H        -1.416306         3.445649         2.194010
 H        -2.847651        -0.033028         3.154426
 H        -0.081095         0.000246         2.912737
 H        -0.939331        -1.287527         2.197527
