19
Iteration:  4350charge 0 multiplicity 1
 O         0.755311         0.368000         0.249122
 C        -0.581740         0.441951         0.737419
 C        -1.914875        -0.007568        -0.002924
 C        -2.560920         0.959804         0.978018
 C        -1.246505         1.805535         0.874736
 C        -0.932379         2.390571         2.258569
 O        -1.895424         1.702583         3.188061
 C        -2.212479         0.476630         2.446785
 C        -0.857001        -0.138223         2.065604
 H         0.702338         0.709343        -0.764229
 H        -1.826546         0.454325        -1.027078
 H        -2.208164        -1.112214         0.065989
 H        -3.557560         1.407047         0.752868
 H        -1.121553         2.316121        -0.067812
 H         0.173675         2.264452         2.438047
 H        -1.117247         3.543844         2.417087
 H        -2.753412        -0.257690         3.032881
 H        -0.156055         0.118994         2.861135
 H        -1.117317        -1.208880         2.020105
