19
Iteration:     5
 O         0.673471         0.194625         0.148726
 C        -0.576515         0.360513         0.700742
 C        -1.848521         0.078897        -0.052057
 C        -2.522470         1.044684         0.999827
 C        -1.191270         1.846751         0.923460
 C        -1.022199         2.522545         2.332592
 O        -1.894150         1.673559         3.174799
 C        -2.175612         0.521413         2.409556
 C        -0.885437        -0.230457         2.078567
 H         1.374091         0.241204         0.886112
 H        -1.804408         0.600756        -1.083173
 H        -2.292240        -0.932038        -0.124119
 H        -3.410335         1.605359         0.722457
 H        -1.053837         2.584789         0.127648
 H         0.033902         2.490828         2.762398
 H        -1.386190         3.529715         2.296722
 H        -3.051573        -0.001173         2.847645
 H        -0.108826         0.085208         2.829925
 H        -1.003026        -1.326193         1.856664
