19
Iteration:  3770
 O         0.636256         0.174733         0.158466
 C        -0.598305         0.488142         0.711043
 C        -1.890005        -0.026436         0.014578
 C        -2.552844         0.963413         1.022590
 C        -1.228381         1.875500         0.833411
 C        -1.082574         2.485792         2.252458
 O        -1.881270         1.718534         3.084232
 C        -2.089177         0.486141         2.441898
 C        -0.773559        -0.159837         2.170319
 H         1.321623         0.738848         0.759570
 H        -1.922694         0.431621        -0.936903
 H        -2.046776        -1.084791         0.133607
 H        -3.507051         1.435601         0.885515
 H        -0.984165         2.621409         0.161110
 H        -0.007284         2.523473         2.569565
 H        -1.462225         3.515796         2.393962
 H        -2.929900        -0.077956         2.886561
 H        -0.058244        -0.061857         2.974317
 H        -0.804979        -1.184931         1.939123
