19
Iteration:  2429charge 0 multiplicity 1
 O         0.658102         0.218376         0.118766
 C        -0.560802         0.447554         0.684932
 C        -1.888758        -0.022510         0.074995
 C        -2.534669         0.953116         1.016872
 C        -1.314127         1.901267         0.856253
 C        -1.056801         2.501223         2.198930
 O        -1.910149         1.713577         3.133497
 C        -2.132991         0.474004         2.446424
 C        -0.729366        -0.141734         2.181466
 H         1.433983         0.479591         0.753033
 H        -1.931470         0.177108        -0.982840
 H        -2.121189        -1.048300         0.195668
 H        -3.646449         1.236852         0.933573
 H        -1.160716         2.553005        -0.097589
 H         0.047193         2.540978         2.323159
 H        -1.426205         3.509313         2.186037
 H        -2.735689        -0.189243         3.038572
 H        -0.118671         0.202850         2.962442
 H        -0.599053        -1.221427         2.140793
