19
Iteration:  2840charge 0 multiplicity 1
 O         0.656067         0.294625         0.081792
 C        -0.574228         0.371977         0.756593
 C        -1.880818        -0.078334         0.056762
 C        -2.541971         0.960651         0.953895
 C        -1.252194         1.845269         0.870776
 C        -1.037271         2.551428         2.227987
 O        -1.905349         1.687252         3.169679
 C        -2.192077         0.569875         2.454543
 C        -0.742193        -0.200519         2.137269
 H         1.284520         0.754784         0.798659
 H        -1.831959         0.164666        -0.969299
 H        -2.203109        -1.144707         0.070574
 H        -3.575088         1.411733         0.710956
 H        -0.959067         2.349234        -0.053871
 H         0.081998         2.558154         2.428795
 H        -1.425336         3.477511         2.360013
 H        -2.820629        -0.058132         3.154027
 H        -0.214602         0.250446         3.002611
 H        -0.600308        -1.212347         1.987344
