19
Iteration:  4570charge 0 multiplicity 1
 O         0.729216        -0.002660         0.101803
 C        -0.522742         0.443059         0.681819
 C        -1.879571         0.175517        -0.080872
 C        -2.575602         1.111856         1.004834
 C        -1.226862         1.892725         0.965741
 C        -1.204439         2.665266         2.312999
 O        -1.865248         1.587493         3.226647
 C        -2.150191         0.426441         2.435247
 C        -0.714335        -0.248073         2.103495
 H         1.368275         0.636625         0.273438
 H        -2.028991         0.685067        -1.046884
 H        -2.334578        -0.919459        -0.160410
 H        -3.554750         1.486279         0.857882
 H        -1.321524         2.443858        -0.008661
 H        -0.201118         2.975823         2.762181
 H        -1.883930         3.667230         2.368663
 H        -2.889077        -0.191920         2.924721
 H         0.113950         0.048116         2.796216
 H        -0.698040        -1.297711         1.912596
