19
Iteration:  2406charge 0 multiplicity 1
 O         0.607686         0.174950         0.093330
 C        -0.602051         0.454870         0.720902
 C        -1.790250        -0.091583        -0.062711
 C        -2.556042         0.857835         1.020808
 C        -1.344167         1.867819         0.902381
 C        -1.054481         2.495870         2.322959
 O        -1.917210         1.798758         3.141737
 C        -2.135721         0.557411         2.477318
 C        -0.717667        -0.072280         2.133348
 H         1.340324         0.480654         0.540080
 H        -1.589041         0.315710        -1.014826
 H        -1.816120        -1.160455        -0.285187
 H        -3.651614         1.239984         0.992519
 H        -1.323724         2.400878        -0.099014
 H         0.062900         2.327349         2.485321
 H        -1.194912         3.532276         2.347284
 H        -2.706856        -0.076687         3.169294
 H         0.055389         0.221244         2.746437
 H        -0.726457        -1.190918         2.186948
