19
Iteration:  1634
 O         0.674733         0.262588         0.147738
 C        -0.522508         0.455049         0.768057
 C        -1.843528        -0.009907        -0.025953
 C        -2.546692         0.983792         0.917659
 C        -1.314073         1.882317         0.896942
 C        -1.042664         2.490907         2.378351
 O        -1.878166         1.745911         3.180265
 C        -2.119078         0.449039         2.420136
 C        -0.832241        -0.180912         2.111254
 H         0.731927        -0.632609        -0.193440
 H        -1.838605         0.596820        -1.086131
 H        -2.156536        -1.126579        -0.122277
 H        -3.589027         1.322260         0.802053
 H        -1.147434         2.439179        -0.032352
 H         0.141844         2.551662         2.635001
 H        -1.429582         3.507211         2.339746
 H        -2.900108        -0.029974         2.979372
 H         0.023694         0.157829         2.721565
 H        -0.827130        -1.252090         2.128734
