19
Iteration:  4468charge 0 multiplicity 1
 O         0.761106         0.258279         0.218072
 C        -0.582794         0.426364         0.684152
 C        -1.931778         0.054872        -0.022800
 C        -2.544376         0.940159         1.032019
 C        -1.239335         1.889483         0.937570
 C        -1.046131         2.495715         2.314230
 O        -1.908250         1.657328         3.144786
 C        -2.166888         0.521510         2.398292
 C        -0.766693        -0.180033         2.115728
 H         0.898713         0.056776        -0.771063
 H        -1.920951         0.501588        -1.045607
 H        -2.135379        -0.988516        -0.205989
 H        -3.522186         1.504260         0.888254
 H        -1.238550         2.368825        -0.006931
 H         0.043371         2.406577         2.616157
 H        -1.454172         3.524301         2.434214
 H        -2.943473        -0.052015         2.949538
 H         0.008204         0.009925         2.796828
 H        -0.938332        -1.250402         2.050067
