19
Iteration:  1930charge 0 multiplicity 1
 O         0.729847         0.189937         0.135364
 C        -0.603642         0.485497         0.752576
 C        -1.880502         0.071344         0.022084
 C        -2.590008         0.934392         1.014166
 C        -1.319134         1.863316         0.915239
 C        -1.138871         2.532018         2.189974
 O        -1.841926         1.727434         3.147829
 C        -2.076761         0.468005         2.428618
 C        -0.719557        -0.194227         2.142985
 H         1.013315        -0.627936         0.444239
 H        -1.992373         0.408894        -1.013906
 H        -2.084978        -0.988178         0.053154
 H        -3.553753         1.407145         0.765067
 H        -1.231446         2.533130         0.013620
 H        -0.074728         2.743773         2.489878
 H        -1.564787         3.681491         2.152815
 H        -2.895134         0.007788         2.970850
 H         0.117678         0.037348         2.963853
 H        -0.891592        -1.296412         2.053571
