19
Iteration:  4588
 O         0.636484         0.037513         0.057862
 C        -0.516384         0.474259         0.740701
 C        -1.811690         0.102054        -0.013397
 C        -2.442164         1.001410         0.997000
 C        -1.228771         1.960560         0.938458
 C        -1.233464         2.543346         2.353529
 O        -1.886112         1.653420         3.218637
 C        -2.098162         0.480477         2.401777
 C        -0.818971        -0.206987         2.084042
 H         1.133938         0.778407        -0.213437
 H        -1.761098         0.528677        -1.025359
 H        -2.096033        -0.917825        -0.090022
 H        -3.480290         1.462105         0.988380
 H        -1.059339         2.750213         0.212652
 H        -0.216093         2.674604         2.742003
 H        -1.688391         3.437651         2.296925
 H        -2.875885        -0.129794         2.836092
 H        -0.095474        -0.105389         2.878232
 H        -0.967191        -1.298220         1.939375
