19
Iteration:   916charge 0 multiplicity 1
 O         0.664196         0.242590         0.071009
 C        -0.521638         0.318739         0.737046
 C        -1.918517         0.040759        -0.051533
 C        -2.548531         1.006426         0.898737
 C        -1.194269         1.838989         1.011290
 C        -1.013866         2.532327         2.303378
 O        -1.891744         1.723521         3.201878
 C        -2.182156         0.536138         2.388408
 C        -0.859883        -0.228108         2.104721
 H         1.538719         0.435840         0.636613
 H        -2.067045         0.247956        -1.148607
 H        -2.064781        -0.971941         0.077394
 H        -3.497994         1.447029         0.866069
 H        -0.838731         2.485920         0.265951
 H        -0.086746         2.597743         2.714099
 H        -1.372296         3.603293         2.489347
 H        -2.964510        -0.025076         2.971779
 H        -0.079017        -0.023738         2.858790
 H        -0.960372        -1.292379         2.202255
