19
Iteration:  2768charge 0 multiplicity 1
 O         0.725887         0.366838         0.066682
 C        -0.540979         0.393555         0.771892
 C        -1.912024        -0.102923         0.065814
 C        -2.503109         0.969935         0.997215
 C        -1.143520         1.856078         0.842866
 C        -1.148378         2.627472         2.178495
 O        -1.804086         1.641730         3.157997
 C        -2.220051         0.479943         2.478185
 C        -0.827694        -0.164127         2.237148
 H         0.992437        -0.670346        -0.009598
 H        -2.081715         0.197389        -1.027669
 H        -2.194495        -1.177708         0.079524
 H        -3.403999         1.501730         0.789752
 H        -1.237603         2.462036        -0.128939
 H        -0.226796         2.907603         2.721487
 H        -1.927353         3.578053         2.151040
 H        -3.006297        -0.002407         2.955076
 H        -0.061265         0.207558         2.892617
 H        -0.938389        -1.347967         2.135879
