19
Iteration:   202charge 0 multiplicity 1
 O         0.784470         0.203396         0.240882
 C        -0.576260         0.435331         0.730304
 C        -1.870225         0.016653        -0.086770
 C        -2.642992         0.919337         0.963570
 C        -1.192109         1.801014         0.956681
 C        -0.986897         2.536002         2.262945
 O        -1.775775         1.743878         3.177848
 C        -2.236534         0.535722         2.419992
 C        -0.972003        -0.215369         2.038942
 H         1.246975         1.092011         0.216661
 H        -2.031880         0.433015        -1.136161
 H        -2.058669        -1.051223        -0.189160
 H        -3.692596         1.341578         0.804412
 H        -1.040382         2.467323         0.053486
 H         0.045883         2.651706         2.729409
 H        -1.321464         3.572763         2.372935
 H        -3.013471         0.097759         3.082986
 H        -0.280282        -0.283060         2.898172
 H        -1.158938        -1.320673         2.053591
