19
Iteration:   638charge 0 multiplicity 1
 O         0.673952         0.301902         0.193773
 C        -0.641477         0.395688         0.689280
 C        -1.964240         0.014850        -0.102997
 C        -2.507329         1.040138         0.986948
 C        -1.111821         1.802635         0.915899
 C        -1.032911         2.570879         2.245632
 O        -1.794149         1.665510         3.187365
 C        -2.196417         0.509945         2.398817
 C        -0.862142        -0.292051         2.157046
 H         1.361214         0.236336         1.002738
 H        -1.985690         0.396416        -1.096148
 H        -2.306094        -1.057580        -0.235899
 H        -3.435453         1.600470         0.866557
 H        -1.102958         2.456389         0.022353
 H        -0.177215         2.728796         2.823474
 H        -1.515398         3.540156         2.234436
 H        -2.983283         0.060932         2.914605
 H        -0.131390        -0.065579         2.924720
 H        -0.897311        -1.374409         1.967111
