19
Iteration:  4747charge 0 multiplicity 1
 O         0.659405         0.075211         0.038482
 C        -0.591123         0.482926         0.722428
 C        -1.830074         0.070975        -0.037049
 C        -2.493082         0.967041         1.039928
 C        -1.215582         1.908995         0.934477
 C        -1.017687         2.521483         2.349826
 O        -1.991979         1.670852         3.152077
 C        -2.137148         0.520485         2.409260
 C        -0.814779        -0.138369         2.151875
 H         1.250491         0.748985         0.000457
 H        -1.831278         0.445187        -1.132106
 H        -2.001039        -1.130486        -0.046647
 H        -3.529884         1.231989         0.855188
 H        -1.340194         2.526674        -0.013257
 H        -0.012936         2.360172         2.793432
 H        -1.236203         3.553177         2.510763
 H        -2.817912        -0.198678         3.000014
 H        -0.159663         0.254947         2.919875
 H        -0.707971        -1.229439         2.223409
