19
Iteration:   520
 O         0.693569         0.230784         0.115565
 C        -0.591237         0.414374         0.724914
 C        -1.765019         0.001933        -0.132501
 C        -2.530460         0.953886         0.944952
 C        -1.293212         1.822733         0.908463
 C        -1.078372         2.545491         2.331478
 O        -1.761887         1.724323         3.243505
 C        -2.272655         0.582814         2.492097
 C        -0.885070        -0.236676         2.101669
 H         1.331875         0.015232         0.928629
 H        -1.814218         0.492171        -1.057040
 H        -2.069468        -1.090081        -0.275862
 H        -3.479681         1.421396         0.611806
 H        -1.343780         2.481309         0.028362
 H         0.045871         2.402768         2.496721
 H        -1.225858         3.616321         2.374204
 H        -3.155215         0.275572         2.981615
 H        -0.141668        -0.087158         2.872475
 H        -0.957050        -1.316370         1.854714
