19
Iteration:  1674
 O         0.746180         0.227730         0.154099
 C        -0.605796         0.361794         0.731577
 C        -1.930261         0.059828         0.056619
 C        -2.461371         1.033475         1.007384
 C        -1.172385         1.838990         0.933821
 C        -1.176342         2.536533         2.309521
 O        -1.913159         1.759713         3.141626
 C        -2.084933         0.469083         2.357139
 C        -0.761210        -0.242349         2.117702
 H         0.564375         0.037125        -0.840847
 H        -1.958519         0.426415        -0.866050
 H        -2.183579        -0.991535         0.039634
 H        -3.540501         1.389382         0.902919
 H        -1.098036         2.498278         0.047056
 H        -0.219760         2.756639         2.632615
 H        -1.650439         3.581946         2.327008
 H        -2.783901        -0.236869         2.923274
 H        -0.131303        -0.053786         2.965695
 H        -0.907398        -1.385577         1.989481
