19
Iteration:  3944
 O         0.729514         0.257404         0.174153
 C        -0.599387         0.328220         0.658971
 C        -1.951255        -0.011674        -0.070057
 C        -2.487551         1.018328         1.033767
 C        -1.145352         1.860450         0.931543
 C        -0.993258         2.515729         2.328117
 O        -2.012928         1.711659         3.106677
 C        -2.091652         0.465358         2.393942
 C        -0.805763        -0.170592         2.192743
 H         0.662546         0.824551        -0.517420
 H        -2.071356         0.280073        -1.087837
 H        -2.303302        -0.949136        -0.085273
 H        -3.458168         1.517798         1.174683
 H        -1.188619         2.481690         0.084066
 H        -0.007674         2.316112         2.623279
 H        -1.343701         3.591022         2.568197
 H        -2.895180        -0.024532         2.964104
 H        -0.016731         0.173449         2.892881
 H        -0.845704        -1.283177         2.273639
