19
Iteration:  1686
 O         0.648170         0.225546         0.190923
 C        -0.520341         0.372417         0.749088
 C        -1.915791        -0.040364        -0.024800
 C        -2.510702         1.000957         0.983749
 C        -1.204324         1.911632         0.965902
 C        -1.126626         2.614159         2.294749
 O        -1.901113         1.664704         3.121370
 C        -2.075917         0.540398         2.391429
 C        -0.747684        -0.266535         2.127373
 H         0.704711         0.536167        -0.792433
 H        -1.912306         0.249338        -0.984291
 H        -2.447294        -0.983193         0.099527
 H        -3.541069         1.495299         0.934615
 H        -0.845240         2.541612         0.133454
 H        -0.199796         2.608021         2.725754
 H        -1.611546         3.643390         2.216945
 H        -2.925012         0.018848         2.933266
 H         0.121042        -0.047868         2.747913
 H        -0.971316        -1.394240         2.156126
