19
Iteration:  1325
 O         0.663878         0.225115        -0.007052
 C        -0.556300         0.383587         0.769672
 C        -1.833987         0.007368        -0.007994
 C        -2.550904         1.021186         1.010379
 C        -1.170779         1.868043         0.956862
 C        -1.071402         2.478975         2.326082
 O        -1.937608         1.757390         3.156994
 C        -2.228171         0.514484         2.396680
 C        -0.774840        -0.205392         2.103707
 H         1.454533         0.225964         0.700794
 H        -1.927505         0.338359        -0.994113
 H        -2.037760        -1.162144         0.005568
 H        -3.555480         1.342623         0.896733
 H        -0.898629         2.616865         0.199762
 H         0.007846         2.528632         2.716545
 H        -1.386649         3.500364         2.465345
 H        -2.925894        -0.085974         2.989468
 H        -0.057010         0.003349         2.856956
 H        -0.958503        -1.337488         2.101829
