19
Iteration:  1320charge 0 multiplicity 1
 O         0.637073         0.260501         0.030265
 C        -0.557719         0.391088         0.729590
 C        -1.872469        -0.014200         0.021838
 C        -2.511766         1.019941         0.962156
 C        -1.155518         1.858567         0.950058
 C        -1.068143         2.475103         2.347302
 O        -1.928738         1.753770         3.119207
 C        -2.151700         0.500854         2.440874
 C        -0.818092        -0.237306         2.131293
 H         1.423580         0.207607         0.571886
 H        -1.949583         0.431457        -1.054929
 H        -2.060491        -1.052049         0.062502
 H        -3.582641         1.352092         0.864912
 H        -0.805981         2.657661         0.261581
 H        -0.057606         2.582050         2.807370
 H        -1.563609         3.492402         2.263474
 H        -2.964568        -0.032812         2.954639
 H        -0.079631        -0.008873         2.949401
 H        -0.967262        -1.279003         1.935145
