19
Iteration:  3505
 O         0.737161         0.388601         0.146701
 C        -0.577223         0.399054         0.627637
 C        -1.930600        -0.154160         0.084076
 C        -2.481853         0.970461         0.985429
 C        -1.213053         1.768293         0.878778
 C        -1.071804         2.493960         2.187366
 O        -1.947488         1.764370         3.174266
 C        -2.163933         0.557824         2.457080
 C        -0.780837        -0.134185         2.172092
 H         1.032701        -0.467532         0.255099
 H        -2.160102        -0.010155        -1.009680
 H        -2.154690        -1.200955         0.287251
 H        -3.451231         1.520355         0.837751
 H        -1.163567         2.452959         0.034928
 H        -0.037096         2.415474         2.608173
 H        -1.336757         3.519145         2.066447
 H        -2.871662        -0.077286         2.994158
 H         0.020912         0.284723         2.795782
 H        -0.777676        -1.182027         2.295702
