19
Iteration:  2314
 O         0.714303         0.168134         0.164790
 C        -0.569173         0.422588         0.723185
 C        -1.901284         0.094760        -0.016269
 C        -2.552372         0.862737         1.063934
 C        -1.350307         1.844896         0.857753
 C        -1.122068         2.604454         2.169433
 O        -1.862516         1.784638         3.135957
 C        -2.081755         0.471705         2.513561
 C        -0.753101        -0.201899         2.080761
 H         1.324346         0.354040         0.889893
 H        -1.911639         0.340443        -1.138215
 H        -2.106688        -1.057292        -0.094517
 H        -3.537372         1.135357         0.947463
 H        -1.409045         2.479643         0.054030
 H         0.023701         2.643622         2.314266
 H        -1.440883         3.562035         2.518347
 H        -2.824363        -0.036199         3.117424
 H         0.136243        -0.060265         2.799563
 H        -0.819649        -1.288130         2.079495
