19
Iteration:   703
 O         0.721149         0.272175         0.129979
 C        -0.575887         0.329735         0.708264
 C        -1.922545         0.038787        -0.015185
 C        -2.525284         1.081880         0.974320
 C        -1.176029         1.786252         0.942803
 C        -1.086755         2.454147         2.343637
 O        -1.928855         1.695799         3.184267
 C        -2.186878         0.588449         2.381794
 C        -0.758210        -0.184722         2.071637
 H         1.013331        -0.527300         0.500244
 H        -1.859747         0.436716        -1.003148
 H        -2.376633        -1.011846        -0.056387
 H        -3.450416         1.680449         0.844445
 H        -1.014712         2.420640         0.039843
 H        -0.060111         2.435528         2.675513
 H        -1.395599         3.612820         2.202159
 H        -2.866035        -0.021396         2.926545
 H         0.023558         0.146322         2.755831
 H        -0.808034        -1.283837         2.210748
