19
Iteration:  4478charge 0 multiplicity 1
 O         0.768166         0.357169         0.249411
 C        -0.599070         0.356039         0.673793
 C        -1.905034         0.006191        -0.052513
 C        -2.570488         1.039694         0.996543
 C        -1.285316         1.791776         0.891424
 C        -1.029150         2.423649         2.340023
 O        -1.897762         1.755602         3.183662
 C        -2.143463         0.487208         2.405050
 C        -0.777368        -0.221942         2.070176
 H         0.746115        -0.053063        -0.613404
 H        -2.004241         0.574874        -1.013026
 H        -2.278873        -0.989672        -0.136718
 H        -3.631929         1.481146         0.890653
 H        -1.073281         2.546733         0.149748
 H        -0.001971         2.301238         2.818530
 H        -1.200424         3.477646         2.259393
 H        -2.915667        -0.096538         2.980636
 H        -0.060017         0.189933         2.725925
 H        -0.680930        -1.317472         2.134213
