19
Iteration:  4302
 O         0.750075         0.124990         0.127724
 C        -0.575920         0.473688         0.707175
 C        -1.844201         0.028322        -0.042836
 C        -2.536529         0.993094         1.028425
 C        -1.201640         1.903817         0.909981
 C        -1.199975         2.534790         2.285660
 O        -1.842298         1.678077         3.222527
 C        -2.115378         0.542987         2.394311
 C        -0.839597        -0.256634         2.141362
 H         0.992329         0.732097        -0.551690
 H        -1.798506         0.588610        -0.974860
 H        -2.014744        -1.010104        -0.033600
 H        -3.615386         1.221729         0.957973
 H        -1.064672         2.536142         0.047817
 H        -0.340761         2.792193         2.852014
 H        -1.695654         3.544922         2.120614
 H        -2.837001        -0.085797         3.006922
 H        -0.183306        -0.035084         2.969685
 H        -1.096820        -1.274886         1.929105
