19
Iteration:   681charge 0 multiplicity 1
 O         0.646763         0.259255         0.165233
 C        -0.589995         0.513496         0.755290
 C        -1.888589         0.039207        -0.055508
 C        -2.510466         0.956450         1.001577
 C        -1.195289         1.968961         0.919328
 C        -0.937982         2.531675         2.271964
 O        -1.879610         1.703845         3.110043
 C        -2.189016         0.403014         2.413091
 C        -0.870794        -0.274940         2.135720
 H         1.091256        -0.400304         0.881351
 H        -1.859968         0.398237        -1.072126
 H        -2.180664        -1.058242        -0.071554
 H        -3.514528         1.361423         0.957105
 H        -1.095735         2.538020        -0.018862
 H         0.104203         2.561635         2.500449
 H        -1.413612         3.635618         2.363225
 H        -3.012841        -0.013019         2.897328
 H        -0.151804        -0.216600         2.957935
 H        -0.950975        -1.357693         1.912090
