19
Iteration:  1777
 O         0.720104         0.288145        -0.004620
 C        -0.527949         0.417676         0.740385
 C        -1.853745        -0.061153         0.014903
 C        -2.549830         0.983980         0.954867
 C        -1.209942         1.858639         0.874054
 C        -1.103513         2.579951         2.283707
 O        -1.807678         1.732394         3.193335
 C        -2.220537         0.468295         2.440020
 C        -0.867041        -0.239774         2.187419
 H         1.335368        -0.064343         0.614833
 H        -1.945477         0.391174        -1.012965
 H        -2.258315        -1.045499         0.200429
 H        -3.534335         1.347066         0.866282
 H        -1.281686         2.525866         0.013955
 H        -0.118140         2.549090         2.635631
 H        -1.619578         3.545587         2.277793
 H        -2.861073        -0.042890         3.075906
 H        -0.253627         0.180836         3.073847
 H        -0.961278        -1.297509         2.293057
