19
Iteration:   304charge 0 multiplicity 1
 O         0.639043         0.165945         0.159951
 C        -0.600480         0.475801         0.769684
 C        -1.864492         0.002200        -0.004202
 C        -2.480246         1.107762         1.012587
 C        -1.194557         1.938348         0.878533
 C        -1.021058         2.564700         2.280426
 O        -1.915697         1.629182         3.085442
 C        -2.188608         0.431232         2.367426
 C        -0.818741        -0.196110         2.133445
 H         1.272176        -0.176277         0.809669
 H        -1.788996         0.407243        -0.979106
 H        -2.163306        -1.105971         0.198080
 H        -3.396091         1.618668         0.817848
 H        -1.126106         2.503518        -0.034062
 H         0.044306         2.354726         2.669638
 H        -1.421019         3.482223         2.555094
 H        -3.006278        -0.086012         2.862161
 H        -0.135268         0.205229         2.918425
 H        -0.734920        -1.305202         2.006023
