19
Iteration:   784charge 0 multiplicity 1
 O         0.797457         0.343542         0.229884
 C        -0.588595         0.314810         0.695511
 C        -1.908121         0.002411        -0.018269
 C        -2.587368         1.040617         1.020896
 C        -1.218598         1.815161         0.949730
 C        -1.006473         2.460270         2.257190
 O        -1.812767         1.695424         3.164720
 C        -2.273020         0.557348         2.410907
 C        -0.855897        -0.195527         2.072228
 H         0.923012        -0.486863        -0.093131
 H        -1.933289         0.580664        -1.025179
 H        -2.219597        -1.031479        -0.270667
 H        -3.552908         1.587476         0.858516
 H        -1.214627         2.454901         0.086027
 H         0.050481         2.579666         2.644474
 H        -1.482524         3.458835         2.021691
 H        -3.063292         0.017034         3.090639
 H        -0.060514         0.093348         2.794230
 H        -0.834614        -1.307458         1.940954
