19
Iteration:  4633
 O         0.755538         0.415466         0.233121
 C        -0.617527         0.396095         0.711955
 C        -1.971405         0.062903        -0.006036
 C        -2.496571         1.044754         1.007084
 C        -1.207961         1.816049         0.930870
 C        -0.953120         2.363562         2.258034
 O        -1.953195         1.691850         3.130231
 C        -2.155338         0.462211         2.402166
 C        -0.824560        -0.200530         2.133185
 H         0.830049         0.447693        -0.721949
 H        -2.118921         0.330833        -1.028676
 H        -2.275368        -0.965245         0.169444
 H        -3.528361         1.336551         0.758414
 H        -1.063391         2.330763        -0.040368
 H         0.101260         2.123070         2.467353
 H        -1.095790         3.310939         2.422670
 H        -2.798215        -0.166192         2.956744
 H        -0.015915        -0.042502         2.867849
 H        -1.050100        -1.248376         2.107500
