19
Iteration:  4890
 O         0.596388         0.276109        -0.025603
 C        -0.549897         0.433517         0.778680
 C        -1.859634        -0.059447         0.064967
 C        -2.523613         0.978210         0.969456
 C        -1.182822         1.807601         0.908312
 C        -1.019678         2.526835         2.328716
 O        -2.002286         1.732599         3.104388
 C        -2.148002         0.528645         2.369137
 C        -0.746433        -0.128184         2.257559
 H         1.289128        -0.049732         0.479627
 H        -1.836041         0.361902        -1.006930
 H        -2.125276        -1.162389         0.242489
 H        -3.524029         1.214468         0.691486
 H        -0.988056         2.277661        -0.031108
 H        -0.021797         2.292769         2.763403
 H        -1.127788         3.584913         2.342307
 H        -2.824830        -0.106899         2.905949
 H        -0.117182         0.165791         3.067890
 H        -0.773752        -1.249395         2.166168
