19
Iteration:  3470charge 0 multiplicity 1
 O         0.628271         0.238923         0.188948
 C        -0.591270         0.425806         0.708014
 C        -1.796257         0.008081         0.030183
 C        -2.501505         0.922978         1.063153
 C        -1.267474         1.838285         0.897996
 C        -1.193133         2.600574         2.097457
 O        -1.871873         1.758696         3.150411
 C        -2.063928         0.506851         2.456705
 C        -0.725473        -0.222428         2.149392
 H         0.912851        -0.528161         0.648224
 H        -1.848282         0.566075        -0.863044
 H        -1.950496        -1.036105        -0.125026
 H        -3.532586         1.123144         0.869812
 H        -1.373886         2.418528        -0.133269
 H        -0.129647         2.752127         2.346512
 H        -1.707538         3.606940         2.136429
 H        -2.836635        -0.074417         2.902445
 H         0.088481         0.012725         2.790484
 H        -0.949693        -1.251959         2.176664
