19
Iteration:  4028charge 0 multiplicity 1
 O         0.736384         0.228237         0.276842
 C        -0.560035         0.343225         0.696857
 C        -1.890618         0.047274        -0.018123
 C        -2.492282         1.036766         1.034848
 C        -1.241465         1.837569         0.866611
 C        -1.146034         2.536976         2.238597
 O        -1.857016         1.722349         3.171263
 C        -2.110418         0.461350         2.413492
 C        -0.862377        -0.288049         2.083454
 H         0.900918         1.080422        -0.339494
 H        -1.943587         0.687377        -0.967808
 H        -2.298703        -1.026121        -0.001266
 H        -3.361757         1.643985         0.972329
 H        -1.077227         2.413146        -0.064446
 H        -0.020248         2.786422         2.415913
 H        -1.652703         3.450506         2.285024
 H        -2.857082         0.006869         3.072351
 H         0.007031        -0.123269         2.800143
 H        -1.019516        -1.332241         1.888999
