19
Iteration:   997charge 0 multiplicity 1
 O         0.720928         0.348941         0.148531
 C        -0.541276         0.377286         0.738667
 C        -1.907582         0.078963         0.033695
 C        -2.563226         1.067149         0.967678
 C        -1.211196         1.790171         0.972062
 C        -1.038111         2.529941         2.255539
 O        -1.863735         1.727002         3.131373
 C        -2.148000         0.456245         2.372707
 C        -0.850252        -0.291722         2.145823
 H         0.802699        -0.656959        -0.121710
 H        -1.776348         0.439393        -1.002674
 H        -2.308789        -1.052193         0.096159
 H        -3.636443         1.516407         0.995315
 H        -0.892229         2.392813         0.029422
 H        -0.002528         2.539909         2.724967
 H        -1.531757         3.472949         2.178971
 H        -2.936234        -0.109131         2.847211
 H        -0.153070         0.090965         2.909182
 H        -1.055572        -1.429210         2.043880
