19
Iteration:  3354
 O         0.617413         0.231610         0.086867
 C        -0.568928         0.384871         0.743767
 C        -1.894465        -0.142868         0.096116
 C        -2.490193         0.961755         1.011558
 C        -1.175964         1.840674         0.883188
 C        -1.146219         2.595873         2.310358
 O        -1.932041         1.762292         3.109564
 C        -2.092946         0.536584         2.381459
 C        -0.738954        -0.163824         2.072559
 H         1.350378         0.415143         0.664286
 H        -1.947668         0.142531        -1.018996
 H        -2.227422        -1.180313         0.353644
 H        -3.536741         1.275397         0.781760
 H        -1.070381         2.432900         0.087214
 H        -0.077821         2.667984         2.628812
 H        -1.474936         3.680237         2.288300
 H        -2.784002        -0.037007         2.999801
 H        -0.106490         0.350748         2.896599
 H        -0.698754        -1.300387         2.191346
