19
Iteration:   971
 O         0.700641         0.292959         0.208719
 C        -0.586647         0.420557         0.618244
 C        -1.881409        -0.031898        -0.094872
 C        -2.478212         1.009934         0.986696
 C        -1.233733         1.858106         0.864380
 C        -1.030264         2.524266         2.320475
 O        -1.830748         1.729604         3.199545
 C        -2.175980         0.495338         2.479070
 C        -0.880247        -0.228224         2.121388
 H         0.891230        -0.690350         0.276259
 H        -1.933462         0.475228        -1.110694
 H        -2.100262        -1.027839        -0.157400
 H        -3.390935         1.533905         0.922224
 H        -1.219563         2.477330        -0.011371
 H        -0.092593         2.521138         2.801552
 H        -1.587655         3.557941         2.484217
 H        -3.031655         0.009854         2.990444
 H        -0.050254        -0.024470         2.812996
 H        -1.095096        -1.257652         1.928451
