19
Iteration:   509
 O         0.681772         0.221737         0.196201
 C        -0.589223         0.455187         0.717925
 C        -1.832822         0.084281        -0.106354
 C        -2.488557         0.941419         0.975401
 C        -1.281502         1.906139         0.881203
 C        -1.064532         2.469135         2.202366
 O        -1.766720         1.690607         3.178489
 C        -2.175328         0.509044         2.458393
 C        -0.958913        -0.220529         2.164041
 H         1.357134         0.103177         0.832574
 H        -1.815943         0.645632        -0.988149
 H        -2.038177        -1.022189        -0.239697
 H        -3.526768         1.276886         0.900972
 H        -1.172609         2.636822         0.071154
 H         0.018864         2.465664         2.448866
 H        -1.430176         3.478818         2.366784
 H        -2.833413        -0.026098         3.083708
 H        -0.189167        -0.086434         2.914042
 H        -1.214622        -1.298724         2.108027
