19
Iteration:  3799charge 0 multiplicity 1
 O         0.779261         0.229805         0.133678
 C        -0.546121         0.345541         0.666092
 C        -1.911578        -0.042005        -0.020021
 C        -2.544697         0.910463         1.038996
 C        -1.218086         1.786901         0.914858
 C        -0.985562         2.535591         2.300002
 O        -1.998259         1.817475         3.190126
 C        -2.161880         0.555373         2.434097
 C        -0.818267        -0.209050         2.115870
 H         0.813273         0.992180        -0.406931
 H        -1.956005         0.492662        -1.039053
 H        -2.210787        -1.081222        -0.041422
 H        -3.526669         1.412987         0.826212
 H        -1.120211         2.511724         0.095200
 H         0.017860         2.474525         2.700274
 H        -1.292539         3.639272         2.308163
 H        -2.959024        -0.052783         2.907814
 H        -0.050103         0.087681         2.905294
 H        -0.871883        -1.324985         2.180596
