19
Iteration:  1934charge 0 multiplicity 1
 O         0.714980         0.184734         0.109361
 C        -0.570453         0.511377         0.745588
 C        -1.873676         0.063384         0.031768
 C        -2.578474         0.927685         0.992547
 C        -1.337591         1.864127         0.897595
 C        -1.132574         2.545002         2.182881
 O        -1.836077         1.710745         3.158647
 C        -2.088966         0.492065         2.436774
 C        -0.721369        -0.200746         2.182011
 H         1.041278        -0.725557         0.469442
 H        -1.915687         0.464810        -1.050479
 H        -1.975108        -1.029737         0.134248
 H        -3.505269         1.487284         0.813735
 H        -1.330384         2.546864         0.060618
 H        -0.136761         2.706348         2.542213
 H        -1.601810         3.525494         2.210259
 H        -2.955149         0.029317         2.955983
 H        -0.003910         0.009470         2.914845
 H        -0.934196        -1.266761         2.041335
