19
Iteration:  4101charge 0 multiplicity 1
 O         0.750968         0.268854         0.201486
 C        -0.575480         0.370614         0.699882
 C        -1.935348        -0.017005         0.017419
 C        -2.498184         1.012445         1.020232
 C        -1.171870         1.820366         0.978587
 C        -1.077604         2.535991         2.384759
 O        -1.915265         1.755886         3.122307
 C        -2.157023         0.463585         2.365430
 C        -0.794126        -0.196752         2.029388
 H         0.703679         0.157635        -0.853834
 H        -2.012285         0.371062        -0.974518
 H        -2.290954        -1.082674        -0.037461
 H        -3.513376         1.341568         0.676493
 H        -1.163340         2.438474        -0.047957
 H        -0.120855         2.502101         2.902076
 H        -1.533230         3.644551         2.190729
 H        -2.943166        -0.024311         3.015771
 H        -0.063729         0.183321         2.775749
 H        -0.807779        -1.290132         2.243492
