19
Iteration:  3125charge 0 multiplicity 1
 O         0.700458         0.421228         0.181504
 C        -0.601688         0.384290         0.754784
 C        -1.965002        -0.153653        -0.074563
 C        -2.570650         0.909315         0.987850
 C        -1.218890         1.787525         0.886893
 C        -1.040586         2.543419         2.243534
 O        -1.869268         1.818276         3.188119
 C        -2.130266         0.558638         2.434867
 C        -0.726801        -0.264883         2.112748
 H         1.275554        -0.254695         0.782199
 H        -2.027645         0.311902        -1.055909
 H        -2.303007        -1.144183        -0.069720
 H        -3.555332         1.296140         0.723982
 H        -1.425901         2.315547        -0.106862
 H         0.008494         2.585805         2.545136
 H        -1.351803         3.615173         2.237204
 H        -2.867917        -0.001460         2.953239
 H         0.015605         0.086980         2.826064
 H        -0.914193        -1.302369         2.110187
