19
Iteration:  4661
 O         0.728793         0.352264         0.343528
 C        -0.649258         0.481295         0.692500
 C        -1.850909        -0.048500        -0.115794
 C        -2.536073         0.950303         1.012652
 C        -1.319061         1.912518         0.931617
 C        -0.994649         2.417251         2.289078
 O        -1.741844         1.721987         3.202176
 C        -2.185771         0.491296         2.381443
 C        -0.899297        -0.210858         2.050824
 H         0.798263        -0.049769        -0.612659
 H        -2.004481         0.506450        -1.104472
 H        -2.150160        -1.188674        -0.229150
 H        -3.602312         1.075076         0.794656
 H        -1.301280         2.561324         0.089601
 H         0.123294         2.336379         2.353894
 H        -1.144774         3.648646         2.459758
 H        -2.936268        -0.041177         3.031322
 H        -0.164208        -0.131474         2.835701
 H        -1.078221        -1.309484         1.768678
