19
Iteration:  4258
 O         0.699268         0.186260         0.252879
 C        -0.548176         0.468383         0.712403
 C        -1.923513         0.066550        -0.023861
 C        -2.515536         1.008223         0.997077
 C        -1.177416         1.886292         0.913794
 C        -1.133551         2.514227         2.271940
 O        -1.917295         1.646776         3.131307
 C        -2.079080         0.480748         2.405155
 C        -0.748991        -0.220882         2.119904
 H         0.628797         0.022400        -0.705812
 H        -2.114463         0.559563        -1.017262
 H        -2.149240        -0.993873         0.038542
 H        -3.491913         1.478182         0.993648
 H        -0.993832         2.667745         0.190095
 H        -0.181357         2.836112         2.654688
 H        -1.844540         3.458017         2.426481
 H        -2.949372        -0.020469         2.886118
 H         0.139945        -0.018759         2.733362
 H        -0.929663        -1.257920         1.915114
