19
Iteration:  2003
 O         0.704044         0.348404         0.162454
 C        -0.594721         0.442678         0.705816
 C        -1.899612        -0.045109        -0.010195
 C        -2.582274         0.924537         1.064036
 C        -1.281158         1.802272         0.890199
 C        -0.997938         2.503858         2.209369
 O        -1.895027         1.770714         3.105738
 C        -2.120997         0.521844         2.443885
 C        -0.753012        -0.193268         2.143697
 H         1.027060        -0.434845         0.496719
 H        -2.100467         0.337756        -0.985286
 H        -2.159363        -1.205961         0.102119
 H        -3.656350         1.127399         0.949786
 H        -1.325063         2.440820        -0.003420
 H         0.096723         2.408248         2.403093
 H        -1.210568         3.513154         2.242429
 H        -2.791959        -0.031187         3.111364
 H        -0.096995         0.237625         2.856048
 H        -0.865217        -1.263044         2.182855
