19
Iteration:  3637charge 0 multiplicity 1
 O         0.666060         0.292151         0.067846
 C        -0.516784         0.356522         0.759874
 C        -1.913500        -0.121755         0.004513
 C        -2.442746         0.966775         1.059705
 C        -1.229269         1.847080         0.831781
 C        -1.087676         2.599767         2.191232
 O        -1.974777         1.790686         3.147308
 C        -2.095363         0.524737         2.483463
 C        -0.814055        -0.268172         2.165011
 H         1.355924         0.561035         0.683018
 H        -2.125243         0.413595        -0.970572
 H        -2.228344        -1.140937        -0.032604
 H        -3.506885         1.384934         0.855040
 H        -1.190053         2.343926        -0.061356
 H         0.021130         2.555873         2.508210
 H        -1.390863         3.661330         2.387471
 H        -2.710977        -0.182229         3.122527
 H        -0.060492         0.020006         2.934698
 H        -0.930465        -1.293723         2.189998
