19
Iteration:  3796charge 0 multiplicity 1
 O         0.768647         0.220512         0.143781
 C        -0.535909         0.331595         0.674098
 C        -1.922775        -0.023292        -0.026087
 C        -2.538803         0.909995         1.039446
 C        -1.254071         1.791547         0.915187
 C        -0.978235         2.551780         2.286614
 O        -2.012828         1.816360         3.199356
 C        -2.155292         0.560955         2.430223
 C        -0.803182        -0.227286         2.093211
 H         0.933626         1.120597        -0.395785
 H        -1.834735         0.486158        -1.012651
 H        -2.252289        -1.126307         0.085625
 H        -3.493224         1.392525         0.803099
 H        -1.139859         2.553759         0.028708
 H         0.094296         2.482855         2.750406
 H        -1.227737         3.600901         2.320728
 H        -2.898309        -0.062059         2.902498
 H        -0.073036         0.072045         2.847097
 H        -0.840357        -1.351939         2.242879
