19
Iteration:  1127
 O         0.652603         0.262077         0.141050
 C        -0.603389         0.398319         0.762154
 C        -1.845752         0.073639        -0.024682
 C        -2.461852         1.035621         0.996236
 C        -1.241144         1.873112         0.979129
 C        -1.097351         2.549041         2.251981
 O        -1.802682         1.639916         3.122197
 C        -2.176417         0.513248         2.454827
 C        -0.872969        -0.299658         2.078857
 H         1.285361         0.000205         0.837042
 H        -1.903633         0.500000        -1.012612
 H        -2.132450        -0.975213        -0.038533
 H        -3.430731         1.564564         0.678665
 H        -1.052545         2.368693        -0.032200
 H        -0.073518         2.824819         2.464123
 H        -1.750068         3.563241         2.339875
 H        -2.981128        -0.034411         2.908432
 H        -0.053526        -0.055919         2.764096
 H        -0.815125        -1.401979         1.909291
