19
Iteration:  1330charge 0 multiplicity 1
 O         0.696928         0.182806        -0.023023
 C        -0.548390         0.401506         0.772219
 C        -1.799737         0.010752        -0.014642
 C        -2.568943         1.007196         1.044561
 C        -1.201868         1.876023         0.965141
 C        -1.050976         2.501602         2.314255
 O        -1.959657         1.734960         3.210152
 C        -2.276513         0.536803         2.363891
 C        -0.759828        -0.195327         2.089932
 H         1.322680         0.236672         0.641679
 H        -1.838236         0.331741        -1.122066
 H        -2.051616        -0.996157        -0.028070
 H        -3.593371         1.450156         0.852593
 H        -1.109325         2.450458         0.022045
 H        -0.013284         2.356965         2.578055
 H        -1.219733         3.635882         2.542765
 H        -2.902724        -0.129113         2.991184
 H         0.047980         0.086337         2.857600
 H        -0.865232        -1.262516         2.251492
