19
Iteration:  2638
 O         0.674512         0.286428         0.065222
 C        -0.545107         0.394773         0.690693
 C        -1.787410        -0.019673        -0.019191
 C        -2.516781         0.884615         1.041350
 C        -1.341013         1.857946         0.951197
 C        -1.169377         2.556348         2.201428
 O        -1.808857         1.774122         3.177450
 C        -2.098879         0.516572         2.477091
 C        -0.834325        -0.188014         2.180756
 H         1.130970        -0.223250         0.643755
 H        -1.839233         0.341760        -1.134661
 H        -2.168839        -1.068699        -0.088599
 H        -3.481780         1.049144         0.645899
 H        -1.241147         2.484322        -0.024317
 H        -0.040314         2.741675         2.336201
 H        -1.619414         3.472915         2.240009
 H        -2.804252        -0.046894         3.106088
 H        -0.127838         0.016127         2.957444
 H        -1.036531        -1.252705         2.167188
