19
Iteration:  3705charge 0 multiplicity 1
 O         0.724360         0.255627         0.212841
 C        -0.553389         0.415172         0.721852
 C        -1.876856         0.016138         0.062302
 C        -2.524046         0.984225         1.064734
 C        -1.238800         1.829366         0.945859
 C        -1.112908         2.600259         2.165153
 O        -1.892447         1.763911         3.093117
 C        -2.195173         0.433605         2.469191
 C        -0.759779        -0.270892         2.079322
 H         0.698526        -0.105054        -0.792648
 H        -1.910221         0.388613        -0.948784
 H        -1.938799        -1.114158         0.132758
 H        -3.413954         1.583971         0.990668
 H        -1.144860         2.289297         0.018597
 H        -0.037799         2.806044         2.539500
 H        -1.566513         3.544970         2.018799
 H        -2.949090        -0.014255         3.150371
 H        -0.146591         0.063378         2.887300
 H        -0.664106        -1.340629         2.025549
