19
Iteration:  2407
 O         0.602949         0.171551         0.093589
 C        -0.604513         0.464527         0.733628
 C        -1.793433        -0.097959        -0.066246
 C        -2.555566         0.856317         1.015044
 C        -1.344754         1.866341         0.904415
 C        -1.052648         2.496950         2.317305
 O        -1.913614         1.796033         3.141913
 C        -2.133143         0.550805         2.475480
 C        -0.715421        -0.071758         2.132840
 H         1.371661         0.500121         0.576409
 H        -1.599830         0.349506        -1.023308
 H        -1.825643        -1.133866        -0.258919
 H        -3.652637         1.243419         0.962979
 H        -1.352672         2.409715        -0.128436
 H         0.039534         2.310797         2.510205
 H        -1.171072         3.565893         2.367141
 H        -2.726038        -0.057370         3.152910
 H         0.092972         0.219481         2.741318
 H        -0.718975        -1.164218         2.191897
