19
Iteration:  3000
 O         0.712343         0.287822         0.220422
 C        -0.543321         0.464965         0.729637
 C        -1.850341        -0.070733         0.023438
 C        -2.568058         0.918813         1.011671
 C        -1.300502         1.846380         0.893954
 C        -1.088064         2.524684         2.185819
 O        -1.841664         1.751065         3.220637
 C        -2.119308         0.506285         2.383217
 C        -0.828563        -0.107678         2.093409
 H         0.754430        -0.615892        -0.365718
 H        -1.956159         0.227552        -1.047516
 H        -2.131307        -1.150350        -0.029238
 H        -3.645347         1.121063         0.831376
 H        -1.097020         2.439597         0.070186
 H        -0.127518         2.454809         2.606394
 H        -1.483419         3.647724         2.061925
 H        -2.719875        -0.099032         3.146169
 H        -0.012801         0.160832         2.834432
 H        -0.826361        -1.283084         2.001115
