19
Iteration:  4798
 O         0.754121         0.404042         0.128352
 C        -0.596350         0.464909         0.694197
 C        -1.882431        -0.109706        -0.011259
 C        -2.526147         1.017090         0.993162
 C        -1.184802         1.819038         0.919943
 C        -1.062998         2.507606         2.245087
 O        -1.772150         1.714191         3.153858
 C        -2.228055         0.500179         2.444704
 C        -0.945659        -0.276791         2.159118
 H         1.352701        -0.338095         0.514850
 H        -2.095410         0.283158        -0.927194
 H        -2.294257        -1.026787         0.092422
 H        -3.566395         1.366754         0.762212
 H        -1.153292         2.598055         0.055450
 H         0.041524         2.677481         2.427797
 H        -1.504385         3.535811         2.300715
 H        -3.043380        -0.009749         3.080050
 H        -0.162147        -0.210821         2.990146
 H        -1.058263        -1.320851         1.858837
