19
Iteration:  3223charge 0 multiplicity 1
 O         0.614231         0.204838         0.049517
 C        -0.548693         0.419311         0.756947
 C        -1.807486         0.011864         0.062634
 C        -2.555237         0.922338         1.005147
 C        -1.241299         1.851009         0.903845
 C        -1.072253         2.549919         2.253436
 O        -2.002565         1.805078         3.069197
 C        -2.100165         0.473608         2.470086
 C        -0.737065        -0.257670         2.160319
 H         1.472221         0.626251         0.514683
 H        -1.798523         0.329685        -0.991613
 H        -1.937186        -1.029608         0.170057
 H        -3.498948         1.435282         1.059372
 H        -1.234187         2.508661         0.070440
 H        -0.066028         2.507344         2.619431
 H        -1.336104         3.677870         2.149928
 H        -2.784784        -0.094389         3.044825
 H         0.092132         0.085248         2.846072
 H        -0.854281        -1.344659         2.271822
