19
Iteration:  2442
 O         0.754983         0.272599         0.057856
 C        -0.585786         0.405866         0.771728
 C        -1.911489        -0.139176         0.075482
 C        -2.566660         1.022736         1.069085
 C        -1.238079         1.800621         0.871783
 C        -1.160918         2.562691         2.221630
 O        -1.839018         1.719737         3.121729
 C        -2.120844         0.517129         2.424263
 C        -0.780642        -0.177559         2.104518
 H         1.346903         0.407317         0.743558
 H        -1.952631         0.196160        -1.006563
 H        -2.138938        -1.136480         0.161340
 H        -3.526105         1.563158         1.046946
 H        -1.213742         2.435570        -0.098863
 H        -0.222631         2.655246         2.727687
 H        -1.672917         3.588907         2.278634
 H        -2.927165         0.028868         2.938631
 H         0.041070         0.195325         2.768538
 H        -0.908508        -1.214620         2.109786
