19
Iteration:  3206
 O         0.688771         0.097438         0.056416
 C        -0.565615         0.435675         0.748618
 C        -1.907977        -0.036414        -0.002076
 C        -2.423594         0.960885         1.057531
 C        -1.189334         1.852980         0.893720
 C        -1.159852         2.589930         2.238252
 O        -1.965337         1.754455         3.158700
 C        -2.131914         0.462470         2.447878
 C        -0.726208        -0.096942         2.155110
 H         1.379655         0.754724         0.536024
 H        -2.147897         0.475218        -0.950235
 H        -2.347379        -1.095493        -0.080711
 H        -3.503283         1.218563         0.856517
 H        -1.134809         2.511969        -0.144388
 H        -0.126813         2.651571         2.739558
 H        -1.692401         3.480806         2.244541
 H        -2.965837        -0.088410         3.001842
 H        -0.103805         0.090885         3.008517
 H        -0.573271        -1.151595         1.887544
