19
Iteration:  1677charge 0 multiplicity 1
 O         0.720035         0.232523         0.168961
 C        -0.588260         0.354777         0.724153
 C        -1.936604         0.038170         0.052880
 C        -2.472123         1.018554         1.012546
 C        -1.177825         1.857673         0.948775
 C        -1.197890         2.544837         2.307443
 O        -1.899792         1.751416         3.125549
 C        -2.073803         0.488410         2.337376
 C        -0.756320        -0.255613         2.126265
 H         0.581023         0.130392        -0.861189
 H        -1.894509         0.478198        -1.001157
 H        -2.290570        -1.039963         0.109513
 H        -3.503635         1.386678         0.896400
 H        -0.998179         2.522575         0.097460
 H        -0.116170         2.704275         2.739527
 H        -1.625321         3.573663         2.329033
 H        -2.738052        -0.150402         2.887423
 H        -0.052362        -0.063568         2.973038
 H        -0.943021        -1.338532         2.021570
