19
Iteration:  1878charge 0 multiplicity 1
 O         0.678908         0.442401         0.112142
 C        -0.580178         0.400760         0.805142
 C        -1.850342        -0.060325         0.150973
 C        -2.597149         0.923916         0.980135
 C        -1.273937         1.845059         0.838532
 C        -0.970853         2.512171         2.242753
 O        -1.831152         1.721155         3.110899
 C        -2.173529         0.518794         2.427236
 C        -0.880633        -0.261261         2.115507
 H         1.147873        -0.335109         0.031148
 H        -1.656412         0.098438        -1.017617
 H        -2.091121        -1.120208         0.087990
 H        -3.532727         1.507543         0.795601
 H        -1.120957         2.505288        -0.071432
 H         0.092688         2.344324         2.500414
 H        -1.204598         3.617985         2.322153
 H        -3.072543         0.126820         2.962917
 H        -0.248937        -0.053060         3.003810
 H        -0.855616        -1.341598         2.105265
