19
Iteration:  3058charge 0 multiplicity 1
 O         0.672889         0.301362         0.090428
 C        -0.554620         0.362470         0.736345
 C        -1.833947        -0.047209        -0.013821
 C        -2.446374         0.983029         1.027008
 C        -1.150145         1.771859         0.917121
 C        -1.175981         2.589675         2.197720
 O        -1.956366         1.775813         3.163617
 C        -2.174645         0.521970         2.534689
 C        -0.745135        -0.244756         2.150040
 H         0.633068        -0.418307        -0.440803
 H        -1.894943         0.432888        -0.937955
 H        -2.091858        -1.070967         0.023032
 H        -3.443460         1.461647         0.835651
 H        -1.179462         2.380918         0.003346
 H        -0.318484         2.859551         2.782827
 H        -1.715368         3.573916         1.918808
 H        -2.795672        -0.023214         3.295554
 H         0.062271         0.138569         2.846467
 H        -0.643981        -1.303645         2.034358
