19
Iteration:  4489
 O         0.709036         0.450319         0.246756
 C        -0.614994         0.403810         0.720802
 C        -1.937524        -0.019484        -0.113863
 C        -2.534141         1.020386         0.941357
 C        -1.174507         1.790005         0.943939
 C        -0.936639         2.395731         2.255839
 O        -1.955589         1.760371         3.223442
 C        -2.159889         0.454737         2.476297
 C        -0.827531        -0.228496         2.069762
 H         0.819110        -0.074578        -0.463129
 H        -1.968769         0.298797        -1.207860
 H        -2.319845        -0.976205         0.068055
 H        -3.625100         1.404646         0.806786
 H        -1.040243         2.440363         0.080107
 H         0.198013         2.218006         2.400218
 H        -1.148101         3.410889         2.370456
 H        -2.827157        -0.220064         3.093533
 H        -0.049173         0.169560         2.661887
 H        -0.768953        -1.325299         2.158414
