19
Iteration:  3428
 O         0.732398         0.290554         0.103764
 C        -0.562017         0.334017         0.746416
 C        -1.897630        -0.050106         0.119865
 C        -2.439444         1.008492         1.020559
 C        -1.283858         1.822141         0.818184
 C        -1.220828         2.563564         2.219544
 O        -1.818981         1.745605         3.151324
 C        -2.145949         0.503291         2.387189
 C        -0.824084        -0.216197         2.139376
 H         1.510823         0.323612         0.841840
 H        -2.087393         0.182249        -0.958406
 H        -2.213874        -1.086256         0.400387
 H        -3.437152         1.458398         0.926485
 H        -1.148611         2.291921        -0.175878
 H        -0.159670         2.819648         2.491392
 H        -1.687608         3.475061         2.156610
 H        -2.906642        -0.035894         2.896850
 H        -0.064073         0.215131         2.799020
 H        -0.828101        -1.297032         2.133860
