19
Iteration:  1094
 O         0.735664         0.310819         0.114691
 C        -0.598633         0.382093         0.704137
 C        -1.892810         0.013537        -0.041589
 C        -2.449614         0.982909         0.965248
 C        -1.268259         1.897126         0.949857
 C        -1.066765         2.602065         2.287186
 O        -1.791148         1.663539         3.183055
 C        -2.191871         0.514458         2.413817
 C        -0.939598        -0.316413         2.139371
 H         1.359791        -0.335628         0.689354
 H        -1.969944         0.426923        -1.045937
 H        -2.121769        -1.046936        -0.013650
 H        -3.496597         1.355643         0.655076
 H        -1.043523         2.593631         0.045782
 H        -0.008050         2.708679         2.538813
 H        -1.686244         3.624085         2.534993
 H        -3.051040         0.187083         2.982417
 H        -0.120618        -0.061558         2.822630
 H        -0.975900        -1.441722         2.020041
