19
Iteration:  2065charge 0 multiplicity 1
 O         0.688308         0.387331         0.123555
 C        -0.573468         0.304574         0.750780
 C        -1.988442        -0.029302         0.057744
 C        -2.486689         1.043650         1.029034
 C        -1.142608         1.769882         0.937286
 C        -1.171604         2.622855         2.128114
 O        -1.902840         1.770728         3.142459
 C        -2.047145         0.487394         2.453835
 C        -0.764925        -0.317295         2.131630
 H         1.025756        -0.440903         0.139701
 H        -2.041369         0.275594        -0.995025
 H        -2.399987        -0.944259         0.135054
 H        -3.443110         1.438073         0.793697
 H        -0.943573         2.199829        -0.009961
 H        -0.204947         2.860921         2.548202
 H        -1.788441         3.656487         2.020666
 H        -2.709982        -0.077641         3.128337
 H         0.003185        -0.132172         2.865213
 H        -0.859315        -1.429746         2.268490
