19
Iteration:  1784charge 0 multiplicity 1
 O         0.699931         0.250516        -0.006607
 C        -0.556808         0.441269         0.793044
 C        -1.853667        -0.045051        -0.010266
 C        -2.478163         0.971391         0.978399
 C        -1.269389         1.883919         0.954844
 C        -1.146983         2.541851         2.247986
 O        -1.803296         1.747279         3.230566
 C        -2.192191         0.509951         2.368254
 C        -0.871025        -0.217963         2.183430
 H         1.372887        -0.386485         0.487927
 H        -1.915986         0.265754        -1.004499
 H        -2.018397        -1.139806         0.105767
 H        -3.546629         1.286836         0.790674
 H        -1.194380         2.496802         0.054573
 H        -0.033820         2.602227         2.480349
 H        -1.640246         3.597256         2.301106
 H        -2.982221        -0.015038         2.970748
 H        -0.170209         0.158551         2.917185
 H        -0.693461        -1.342198         2.133177
