19
Iteration:  3861
 O         0.748973         0.229705         0.175949
 C        -0.597500         0.446907         0.675663
 C        -1.848602         0.025287        -0.047490
 C        -2.513857         1.029435         0.990313
 C        -1.165072         1.830560         0.906780
 C        -1.125279         2.553456         2.214957
 O        -1.876284         1.657281         3.211531
 C        -2.095655         0.507485         2.505598
 C        -0.887501        -0.189170         2.066328
 H         1.004051        -0.669233         0.514439
 H        -2.096380         0.536819        -0.991161
 H        -2.268868        -1.049862         0.154301
 H        -3.522645         1.473063         0.928171
 H        -1.400624         2.462236        -0.055371
 H        -0.129821         2.989513         2.599080
 H        -1.729071         3.417425         2.144308
 H        -2.894192        -0.006622         3.022242
 H        -0.062674         0.014470         2.735568
 H        -0.947928        -1.298160         2.015205
