19
Iteration:   357charge 0 multiplicity 1
 O         0.649433         0.295084         0.180009
 C        -0.603802         0.460789         0.809661
 C        -1.768422         0.139432        -0.029219
 C        -2.538526         1.036480         0.975400
 C        -1.224078         1.824669         0.925795
 C        -1.027519         2.498951         2.154841
 O        -1.800642         1.725684         3.154154
 C        -2.192345         0.470544         2.403447
 C        -0.932215        -0.412873         2.140720
 H         1.259039        -0.099488         0.785239
 H        -1.659806         0.512821        -0.972739
 H        -2.049258        -0.967739         0.039829
 H        -3.501264         1.454344         0.770568
 H        -1.084914         2.429695         0.051881
 H         0.075342         2.652778         2.460342
 H        -1.536795         3.590946         2.239373
 H        -3.032798         0.121058         2.913305
 H        -0.230760        -0.301149         2.967193
 H        -1.270787        -1.431155         1.841911
