19
Iteration:  4692
 O         0.752337         0.218405         0.234876
 C        -0.606759         0.405010         0.775799
 C        -1.916097         0.088634        -0.025528
 C        -2.504146         1.062505         1.034670
 C        -1.200146         1.861217         0.958439
 C        -1.201063         2.574716         2.259350
 O        -1.745846         1.685456         3.148277
 C        -2.194807         0.459989         2.391664
 C        -0.793833        -0.329641         2.068810
 H         0.648128         0.489463        -0.665646
 H        -1.825873         0.617670        -1.023394
 H        -2.273723        -1.054535        -0.180653
 H        -3.497880         1.467521         0.866450
 H        -0.991192         2.453879         0.038651
 H        -0.179757         2.918650         2.518788
 H        -1.896552         3.474297         2.041045
 H        -2.899972        -0.214924         2.974792
 H        -0.147510        -0.186169         2.934974
 H        -0.922484        -1.392579         1.830497
