19
Iteration:  1796charge 0 multiplicity 1
 O         0.613390         0.213208         0.084700
 C        -0.553249         0.416891         0.721412
 C        -1.777154        -0.004722         0.026698
 C        -2.544911         0.968450         0.967020
 C        -1.282212         1.856270         0.907544
 C        -1.133414         2.596107         2.276351
 O        -1.861303         1.676809         3.193990
 C        -2.145971         0.536801         2.459277
 C        -0.723566        -0.168073         2.110856
 H         0.969662        -0.547986         0.404553
 H        -1.742258         0.343503        -0.923520
 H        -2.027240        -1.076544         0.047448
 H        -3.519708         1.463223         0.790878
 H        -1.027323         2.490739         0.066806
 H        -0.067790         2.799245         2.560607
 H        -1.665645         3.650706         2.199785
 H        -2.992491        -0.012675         2.869600
 H         0.025326         0.016739         2.917683
 H        -0.956093        -1.278762         1.988879
