19
Iteration:  1462
 O         0.724433         0.245762         0.161857
 C        -0.591824         0.449013         0.616933
 C        -1.930258         0.013692        -0.059839
 C        -2.527148         0.971373         0.971098
 C        -1.179035         1.795243         0.922695
 C        -1.080330         2.465069         2.320361
 O        -1.883100         1.746465         3.213175
 C        -2.192383         0.473696         2.469987
 C        -0.815289        -0.166177         2.047035
 H         1.273488         0.130211         1.034890
 H        -2.046943         0.426164        -1.148056
 H        -2.115655        -1.009169         0.028185
 H        -3.550637         1.394367         0.949122
 H        -1.238171         2.661838         0.219790
 H        -0.024641         2.437338         2.581071
 H        -1.267279         3.648877         2.226269
 H        -2.949341        -0.125240         2.916659
 H        -0.000202         0.286878         2.789035
 H        -0.644383        -1.244497         1.951963
