19
Iteration:  3766
 O         0.632292         0.193070         0.149792
 C        -0.584572         0.493241         0.706498
 C        -1.896232        -0.024699         0.038328
 C        -2.528807         0.918353         1.038566
 C        -1.215991         1.874218         0.839963
 C        -1.049475         2.504978         2.241870
 O        -1.855396         1.680041         3.114327
 C        -2.129770         0.505754         2.407437
 C        -0.811654        -0.125376         2.161850
 H         1.359346         0.480013         0.751907
 H        -1.904162         0.415480        -1.021405
 H        -1.986743        -1.105904         0.005284
 H        -3.556153         1.382680         0.881323
 H        -1.008841         2.650734         0.046215
 H        -0.073422         2.626205         2.623942
 H        -1.593836         3.533971         2.294283
 H        -2.940904        -0.068916         2.913520
 H        -0.146263         0.099406         3.082506
 H        -0.878783        -1.238723         1.989262
