19
Iteration:  3964
 O         0.695086         0.207519         0.210612
 C        -0.566063         0.463676         0.761564
 C        -1.878202         0.091951         0.027430
 C        -2.548744         0.982864         0.972628
 C        -1.232221         1.851728         0.921721
 C        -1.041744         2.476873         2.283121
 O        -1.949132         1.741864         3.133169
 C        -2.162159         0.475278         2.439138
 C        -0.698638        -0.245796         2.071071
 H         0.582405         0.174997        -0.787464
 H        -1.919659         0.506025        -1.009808
 H        -2.206827        -0.904882        -0.042209
 H        -3.471130         1.480831         0.751069
 H        -1.066664         2.462215         0.132694
 H         0.001511         2.423023         2.682068
 H        -1.478762         3.487824         2.228640
 H        -2.960658        -0.094786         2.958659
 H         0.048285        -0.050404         2.904131
 H        -0.824428        -1.326043         1.982187
