19
Iteration:  3171charge 0 multiplicity 1
 O         0.617488         0.145902         0.086164
 C        -0.563270         0.419205         0.779845
 C        -1.812255        -0.055543         0.005627
 C        -2.492084         0.965912         0.904974
 C        -1.280519         1.908968         0.910525
 C        -1.216105         2.650394         2.258402
 O        -1.809158         1.701833         3.183513
 C        -2.160998         0.479936         2.455406
 C        -0.738256        -0.190810         2.147092
 H         1.406275         0.246434         0.734151
 H        -1.835587         0.322350        -1.040210
 H        -2.096047        -1.095489         0.119485
 H        -3.520255         1.344283         0.864598
 H        -1.021096         2.603179        -0.068565
 H        -0.153974         2.937868         2.537182
 H        -1.703544         3.598247         2.175449
 H        -2.954722        -0.066246         2.953184
 H        -0.122832         0.149827         2.931152
 H        -0.667058        -1.239160         1.946206
