19
Iteration:    72
 O         0.700290         0.371106         0.097820
 C        -0.544669         0.408324         0.781341
 C        -1.877158        -0.033047        -0.062895
 C        -2.480441         1.057738         0.829295
 C        -1.131032         1.813014         0.972736
 C        -1.057873         2.487601         2.324178
 O        -1.784527         1.681048         3.218309
 C        -2.275307         0.558743         2.407972
 C        -0.956804        -0.262998         2.169533
 H         1.041328        -0.496011         0.133222
 H        -1.960985         0.238165        -1.169818
 H        -2.279188        -1.097557         0.106901
 H        -3.481034         1.588086         0.710651
 H        -0.895432         2.523086         0.129969
 H        -0.019444         2.573084         2.786988
 H        -1.547417         3.472515         2.218381
 H        -3.102404         0.127000         3.008302
 H        -0.241543        -0.212004         3.052823
 H        -1.175510        -1.388123         1.911064
