19
Iteration:  3706
 O         0.720533         0.259770         0.215000
 C        -0.556778         0.416735         0.715559
 C        -1.876078         0.029677         0.069011
 C        -2.514767         0.976804         1.074144
 C        -1.230208         1.821972         0.953108
 C        -1.114529         2.612914         2.160006
 O        -1.894531         1.759995         3.087627
 C        -2.196148         0.426293         2.471030
 C        -0.766217        -0.267662         2.078771
 H         0.691035        -0.139531        -0.785449
 H        -1.917189         0.376407        -0.950262
 H        -1.950863        -1.141132         0.142464
 H        -3.375671         1.575955         0.978764
 H        -1.137060         2.280361        -0.037288
 H        -0.026383         2.819696         2.553417
 H        -1.569551         3.549727         2.015947
 H        -2.948755        -0.021796         3.127103
 H        -0.138506         0.070330         2.875766
 H        -0.680795        -1.377042         1.997035
