19
Iteration:  1875
 O         0.658414         0.448865         0.107115
 C        -0.597454         0.403724         0.815242
 C        -1.829069        -0.077103         0.127206
 C        -2.589492         0.924399         0.988752
 C        -1.271335         1.870557         0.842357
 C        -0.949184         2.520572         2.273548
 O        -1.834422         1.704312         3.095608
 C        -2.177957         0.535391         2.413120
 C        -0.880781        -0.271133         2.139456
 H         1.095540        -0.439550         0.037914
 H        -1.686581         0.117656        -0.928084
 H        -2.033612        -1.129346         0.139818
 H        -3.472167         1.470034         0.716279
 H        -1.259986         2.456758        -0.123025
 H         0.109147         2.332528         2.442375
 H        -1.225795         3.697489         2.256252
 H        -3.036590         0.116526         2.888658
 H        -0.156396        -0.052067         3.060629
 H        -0.872250        -1.380078         2.082433
