19
Iteration:   361charge 0 multiplicity 1
 O         0.612228         0.293410         0.173290
 C        -0.612398         0.467977         0.857478
 C        -1.766962         0.139897         0.035396
 C        -2.528179         1.039818         0.938486
 C        -1.212152         1.823388         0.920284
 C        -1.060616         2.474134         2.188648
 O        -1.790350         1.725650         3.136177
 C        -2.157911         0.490868         2.397946
 C        -0.903677        -0.386874         2.103426
 H         1.299618        -0.141623         0.838097
 H        -1.686849         0.505846        -1.070749
 H        -2.084666        -0.924509        -0.066214
 H        -3.531914         1.413125         0.627557
 H        -1.052643         2.422131         0.011311
 H         0.044042         2.644021         2.412854
 H        -1.461487         3.400778         2.227192
 H        -3.151974         0.088420         2.853495
 H        -0.259217        -0.385335         3.019876
 H        -1.256079        -1.405641         1.908378
