19
Iteration:  3376
 O         0.760240         0.164997         0.010353
 C        -0.572216         0.432256         0.714448
 C        -1.834425        -0.061178        -0.004472
 C        -2.556704         0.955013         1.057942
 C        -1.299630         1.852120         0.854230
 C        -1.061583         2.452941         2.180824
 O        -1.989895         1.775168         3.170253
 C        -2.177298         0.533342         2.530472
 C        -0.771352        -0.089380         2.245030
 H         1.539957         0.714392         0.454610
 H        -1.837979         0.354969        -1.094589
 H        -1.925306        -1.181951         0.054667
 H        -3.525819         1.487613         0.831115
 H        -1.416917         2.447529         0.062351
 H         0.017358         2.361221         2.441867
 H        -1.251965         3.583796         2.217678
 H        -2.852527        -0.121870         3.108411
 H         0.100522         0.149457         2.990406
 H        -0.797359        -1.234285         2.110499
