19
Iteration:  3609
 O         0.668070         0.251382         0.087279
 C        -0.501347         0.445415         0.814353
 C        -1.834046        -0.037260         0.051829
 C        -2.622120         0.926710         0.946216
 C        -1.266264         1.795430         0.929561
 C        -1.153303         2.565641         2.178720
 O        -1.776305         1.727759         3.165337
 C        -2.177636         0.561387         2.448097
 C        -0.805802        -0.142936         2.122692
 H         1.282578        -0.423943         0.561387
 H        -1.855268         0.374998        -0.941353
 H        -2.040784        -1.174265         0.128133
 H        -3.577689         1.234688         0.628590
 H        -1.079172         2.417490        -0.041975
 H        -0.146386         2.895138         2.388119
 H        -1.768346         3.484355         2.155908
 H        -2.676756        -0.097109         3.140182
 H        -0.127938         0.093908         2.945411
 H        -0.847230        -1.331076         2.106362
