19
Iteration:  4202
 O         0.697419         0.314675         0.193349
 C        -0.593579         0.451154         0.749620
 C        -1.889014        -0.011650        -0.019548
 C        -2.519176         0.978179         1.003580
 C        -1.233809         1.861344         0.858021
 C        -0.928076         2.469944         2.257193
 O        -1.908745         1.727127         3.099127
 C        -2.166610         0.406298         2.433888
 C        -0.896530        -0.254959         2.165515
 H         0.885437         1.028761        -0.299319
 H        -1.703922         0.366963        -1.084907
 H        -2.190728        -1.069458         0.030967
 H        -3.420608         1.525596         1.040158
 H        -1.277657         2.542125        -0.068707
 H         0.134216         2.333488         2.541025
 H        -1.275037         3.616762         2.660917
 H        -2.929080        -0.099897         2.994774
 H        -0.209667         0.113126         3.016339
 H        -0.807027        -1.326968         2.121565
