19
Iteration:  1438
 O         0.722951         0.260939         0.211915
 C        -0.591835         0.460944         0.747108
 C        -1.934168         0.050108        -0.028808
 C        -2.564168         1.042853         0.972817
 C        -1.307548         1.868135         0.844780
 C        -1.054003         2.548463         2.271256
 O        -1.825496         1.625687         3.134392
 C        -2.093365         0.495766         2.418945
 C        -0.820410        -0.269663         2.104841
 H         1.235178         0.085358         0.927070
 H        -1.960139         0.535494        -1.060906
 H        -2.076496        -1.043893        -0.042567
 H        -3.648743         1.344779         1.054439
 H        -1.134084         2.407940        -0.110874
 H         0.039767         2.526025         2.433116
 H        -1.454063         3.590422         2.506785
 H        -2.909672        -0.119360         2.884286
 H        -0.078703        -0.004745         2.967381
 H        -0.881048        -1.359037         1.937716
