19
Iteration:  2839charge 0 multiplicity 1
 O         0.666736         0.297633         0.085303
 C        -0.574509         0.369714         0.751988
 C        -1.890505        -0.077102         0.054109
 C        -2.549251         0.964624         0.962137
 C        -1.252498         1.841267         0.868807
 C        -1.037928         2.545776         2.229940
 O        -1.906603         1.689812         3.168342
 C        -2.192419         0.574678         2.452568
 C        -0.741842        -0.199902         2.134670
 H         1.319670         0.743290         0.801869
 H        -1.842955         0.178210        -0.970977
 H        -2.179369        -1.138972         0.057878
 H        -3.580451         1.404005         0.719102
 H        -0.982029         2.332755        -0.042016
 H         0.105120         2.530063         2.416053
 H        -1.429364         3.463433         2.327493
 H        -2.847038        -0.084361         3.161469
 H        -0.167290         0.250404         3.006283
 H        -0.592436        -1.200452         2.021134
