19
Iteration:  4981
 O         0.712989         0.278501         0.168306
 C        -0.607223         0.328688         0.754952
 C        -1.840194        -0.043036        -0.001919
 C        -2.557570         0.948301         0.949901
 C        -1.287293         1.815856         0.901131
 C        -1.253386         2.624331         2.171731
 O        -1.653709         1.749127         3.150773
 C        -2.129412         0.574196         2.469418
 C        -0.823000        -0.262468         2.132131
 H         1.280232        -0.032743         0.801437
 H        -1.741310         0.494872        -1.040459
 H        -2.282855        -1.195205         0.020556
 H        -3.654074         1.189606         0.787099
 H        -1.233992         2.424634        -0.015605
 H        -0.333670         2.985676         2.627715
 H        -1.896152         3.463686         2.023133
 H        -2.959370         0.201519         3.105805
 H        -0.119403         0.033524         2.979134
 H        -0.916259        -1.329584         2.086863
