19
Iteration:  3265charge 0 multiplicity 1
 O         0.724142         0.338456         0.138849
 C        -0.594433         0.427406         0.724370
 C        -1.888983        -0.084108         0.048361
 C        -2.579413         0.995082         1.053389
 C        -1.264854         1.803422         0.888722
 C        -1.007424         2.498506         2.158237
 O        -1.849443         1.696843         3.104160
 C        -2.193876         0.525217         2.413428
 C        -0.811697        -0.168239         2.154996
 H         1.277409         0.237738         0.904136
 H        -1.982424         0.032163        -1.052538
 H        -2.069721        -1.169617         0.352123
 H        -3.563426         1.372940         0.857782
 H        -1.282956         2.292363         0.024521
 H        -0.021267         2.683563         2.572945
 H        -1.503629         3.507716         2.153296
 H        -2.910433         0.005496         3.003220
 H        -0.105406         0.293837         2.949943
 H        -0.640634        -1.278022         2.053194
