19
Iteration:  2925charge 0 multiplicity 1
 O         0.688495         0.216579         0.123124
 C        -0.564809         0.456761         0.750162
 C        -1.888476        -0.013153         0.037008
 C        -2.523780         0.960220         0.989790
 C        -1.302850         1.894648         0.864059
 C        -1.071858         2.543790         2.194850
 O        -1.850903         1.732274         3.185935
 C        -2.160691         0.439204         2.390085
 C        -0.773216        -0.136485         2.117446
 H         1.164770        -0.270206         0.725446
 H        -1.862445         0.268632        -0.993832
 H        -2.015557        -1.054419         0.236459
 H        -3.615581         1.223853         0.912807
 H        -1.331018         2.523126         0.039574
 H         0.018562         2.606846         2.296360
 H        -1.627657         3.494026         2.474389
 H        -2.860293        -0.147392         3.142783
 H        -0.123902         0.124591         3.057978
 H        -0.615757        -1.178707         2.047243
