19
Iteration:  4956charge 0 multiplicity 1
 O         0.697100         0.165410         0.301090
 C        -0.598006         0.437408         0.740438
 C        -1.875878         0.037666         0.008472
 C        -2.535508         0.952807         1.007017
 C        -1.325776         1.839798         0.830367
 C        -1.187570         2.615712         2.107874
 O        -1.726794         1.704854         3.132066
 C        -2.127322         0.446836         2.468199
 C        -0.783253        -0.219780         2.110639
 H         1.318433         0.948463         0.306252
 H        -2.157844         0.469397        -1.038502
 H        -1.947256        -1.091805         0.193720
 H        -3.470584         1.501539         0.908366
 H        -1.289331         2.313108        -0.096781
 H        -0.120913         2.874794         2.492174
 H        -1.759829         3.538509         2.189318
 H        -2.886274         0.017592         3.026320
 H        -0.049955         0.017335         2.839436
 H        -0.852715        -1.339549         1.987885
