19
Iteration:  3801
 O         0.782688         0.233657         0.129854
 C        -0.556650         0.358591         0.667125
 C        -1.900988        -0.050422        -0.018277
 C        -2.547538         0.919747         1.030951
 C        -1.190038         1.787904         0.916316
 C        -0.999320         2.523333         2.308135
 O        -1.983645         1.815832         3.178907
 C        -2.168891         0.546629         2.440589
 C        -0.824420        -0.196605         2.136585
 H         0.749531         0.941063        -0.461316
 H        -2.052350         0.448664        -1.008588
 H        -2.183803        -1.060915        -0.143449
 H        -3.522383         1.405381         0.859553
 H        -1.118103         2.462335         0.132077
 H        -0.024222         2.453342         2.669693
 H        -1.328744         3.613958         2.287369
 H        -2.982077        -0.038534         2.936807
 H        -0.054828         0.091208         2.902427
 H        -0.905797        -1.275335         2.124667
