19
Iteration:  3983
 O         0.761520         0.168272         0.168792
 C        -0.542900         0.439973         0.722365
 C        -1.791503        -0.035464        -0.094997
 C        -2.535931         1.021400         0.993337
 C        -1.287170         1.894626         0.921264
 C        -1.134052         2.585614         2.312444
 O        -1.819200         1.668221         3.267844
 C        -2.181616         0.552617         2.439188
 C        -0.920787        -0.185103         2.070973
 H         0.790165        -0.048303        -0.849295
 H        -1.740652         0.388508        -1.149896
 H        -1.930900        -1.204541        -0.017268
 H        -3.547607         1.357820         0.849911
 H        -1.209483         2.578785         0.031837
 H        -0.041904         2.558785         2.659582
 H        -1.512183         3.571282         2.326655
 H        -2.852685        -0.160541         2.922136
 H        -0.138511         0.062057         2.835006
 H        -1.057229        -1.263318         2.053147
