19
Iteration:  3797
 O         0.772637         0.222706         0.140848
 C        -0.538424         0.335403         0.670282
 C        -1.919664        -0.029436        -0.023924
 C        -2.540930         0.908243         1.041011
 C        -1.243154         1.788554         0.915381
 C        -0.979919         2.547136         2.290759
 O        -2.008960         1.817156         3.197335
 C        -2.157278         0.560081         2.430820
 C        -0.808871        -0.220934         2.099651
 H         0.893510         1.094078        -0.407609
 H        -1.869626         0.498669        -1.029552
 H        -2.240959        -1.119185         0.049159
 H        -3.508096         1.402998         0.806646
 H        -1.129996         2.551417         0.043903
 H         0.078050         2.483240         2.738508
 H        -1.248562         3.618374         2.319129
 H        -2.918861        -0.058563         2.897402
 H        -0.064166         0.077210         2.872446
 H        -0.848010        -1.352717         2.226651
