19
Iteration:   484charge 0 multiplicity 1
 O         0.702360         0.239012         0.233982
 C        -0.606281         0.387143         0.743476
 C        -1.998303         0.023777         0.026902
 C        -2.476151         1.064729         0.971412
 C        -1.199594         1.825022         0.969180
 C        -1.102609         2.597555         2.242463
 O        -1.827235         1.727175         3.113997
 C        -2.239127         0.500790         2.355105
 C        -0.772219        -0.344918         2.011123
 H         1.450737         0.405046         0.942763
 H        -1.873697         0.390059        -1.069507
 H        -2.316300        -1.019931         0.054782
 H        -3.391866         1.599576         0.957713
 H        -1.068798         2.456803         0.081714
 H         0.015770         2.489801         2.722511
 H        -1.414469         3.563797         2.368052
 H        -2.923718         0.012494         3.027255
 H         0.041124        -0.086550         2.707452
 H        -0.689288        -1.412884         1.811555
