19
Iteration:   302
 O         0.634381         0.160547         0.140939
 C        -0.589641         0.473874         0.766766
 C        -1.864622         0.010830         0.013167
 C        -2.466567         1.074742         1.009044
 C        -1.204112         1.944084         0.881804
 C        -1.015430         2.560012         2.301745
 O        -1.915566         1.629892         3.068821
 C        -2.197880         0.447468         2.344450
 C        -0.835815        -0.192112         2.165301
 H         1.222295        -0.144071         0.733010
 H        -1.737123         0.424777        -0.933473
 H        -2.160908        -1.097863         0.141144
 H        -3.393479         1.583387         0.812172
 H        -1.103227         2.529713        -0.032312
 H         0.048372         2.351077         2.680337
 H        -1.471135         3.591041         2.618768
 H        -2.937334        -0.046111         2.879493
 H        -0.090210         0.140983         2.919496
 H        -0.690737        -1.300384         2.041904
