19
Iteration:   929charge 0 multiplicity 1
 O         0.623783         0.292383         0.120346
 C        -0.638042         0.417588         0.743073
 C        -1.870686         0.003964        -0.043137
 C        -2.452267         1.083183         1.016216
 C        -1.157790         1.857198         0.900715
 C        -1.031528         2.482714         2.302422
 O        -1.897220         1.682957         3.137199
 C        -2.131676         0.490681         2.396069
 C        -0.853491        -0.261392         2.153374
 H         1.185604         0.056146         0.795557
 H        -1.801494         0.378519        -1.134344
 H        -2.306839        -0.982757         0.039673
 H        -3.417172         1.539776         0.919596
 H        -1.109701         2.482724         0.004868
 H        -0.003370         2.456809         2.582002
 H        -1.411453         3.468377         2.153631
 H        -2.905721        -0.094651         2.877686
 H        -0.121025         0.069227         2.921447
 H        -1.005100        -1.357632         2.103327
