19
Iteration:  3714charge 0 multiplicity 1
 O         0.703765         0.291218         0.210783
 C        -0.580821         0.429271         0.731947
 C        -1.870771         0.045144         0.066107
 C        -2.458181         0.926967         1.119422
 C        -1.146810         1.778635         0.913015
 C        -1.120721         2.680104         2.158346
 O        -1.902704         1.735561         3.083022
 C        -2.140683         0.430240         2.449485
 C        -0.827715        -0.260689         2.106718
 H         0.623459        -0.410980        -0.602154
 H        -2.046136         0.334124        -0.970912
 H        -2.233149        -0.927798         0.129558
 H        -3.424573         1.435670         0.860848
 H        -1.187907         2.255289         0.018239
 H        -0.159232         2.829430         2.625200
 H        -1.691635         3.630647         2.074265
 H        -2.946644        -0.157566         2.977386
 H         0.016486         0.009800         2.753381
 H        -0.907657        -1.271134         1.912769
