19
Iteration:  1296
 O         0.668421         0.308076         0.113866
 C        -0.563527         0.309551         0.784700
 C        -1.894854         0.015806        -0.022277
 C        -2.485958         1.090992         1.027632
 C        -1.183093         1.848282         0.895186
 C        -1.070622         2.613172         2.186242
 O        -1.876195         1.682591         3.220441
 C        -2.203077         0.476812         2.390393
 C        -0.797349        -0.326949         2.097906
 H         1.370905         0.221546         0.710129
 H        -1.906822         0.364397        -1.075650
 H        -2.161188        -1.008851         0.090940
 H        -3.468135         1.616415         1.006658
 H        -1.092477         2.471236        -0.003927
 H        -0.077205         2.640392         2.543564
 H        -1.671056         3.608974         2.364013
 H        -3.039820        -0.144752         2.846252
 H        -0.068951        -0.057341         2.923062
 H        -1.073079        -1.387406         1.938184
