19
Iteration:  1409
 O         0.645764         0.326357         0.058744
 C        -0.559510         0.401744         0.783294
 C        -1.784097        -0.018969        -0.015911
 C        -2.539027         0.990351         0.963728
 C        -1.212211         1.765234         0.915967
 C        -1.085399         2.621891         2.296302
 O        -1.776860         1.665011         3.214590
 C        -2.181187         0.549119         2.438906
 C        -0.949332        -0.284284         2.077852
 H         1.343805         0.114681         0.760243
 H        -1.784970         0.570159        -0.985250
 H        -1.891196        -1.073285        -0.072282
 H        -3.534235         1.367766         0.769182
 H        -1.035218         2.369753        -0.016326
 H        -0.065878         2.912149         2.634504
 H        -1.780005         3.501685         2.269202
 H        -2.940824         0.012398         2.944287
 H        -0.233131        -0.101248         2.902217
 H        -1.145336        -1.329846         1.909443
