19
Iteration:  3994
 O         0.750001         0.184347         0.228317
 C        -0.584861         0.445777         0.648496
 C        -1.835498        -0.007769        -0.047748
 C        -2.437772         0.933620         0.960234
 C        -1.247117         1.962886         0.887023
 C        -1.164350         2.583015         2.347081
 O        -1.765303         1.682658         3.214810
 C        -2.200259         0.483919         2.420211
 C        -0.877543        -0.237153         2.130875
 H         0.534157         0.097552        -0.796344
 H        -2.119376         0.442748        -1.066460
 H        -2.239699        -1.121415        -0.185797
 H        -3.361160         1.403414         0.709789
 H        -1.144639         2.650703        -0.012623
 H        -0.073661         2.862825         2.685326
 H        -1.723382         3.470760         2.419472
 H        -3.116338         0.176935         2.935409
 H        -0.230868        -0.009321         3.016659
 H        -0.993492        -1.314747         2.072627
