19
Iteration:   373charge 0 multiplicity 1
 O         0.600506         0.262202         0.170761
 C        -0.535495         0.386617         0.844341
 C        -1.857804        -0.004670         0.010043
 C        -2.507634         1.055981         0.892838
 C        -1.203484         1.894563         0.904300
 C        -1.073302         2.562106         2.299978
 O        -1.795880         1.638510         3.128229
 C        -2.194196         0.571388         2.362874
 C        -0.904995        -0.275115         2.116931
 H         1.275105        -0.032766         0.682277
 H        -1.646447         0.594376        -0.984888
 H        -2.204267        -1.032338        -0.108195
 H        -3.538460         1.465840         0.705917
 H        -0.826281         2.437133         0.003966
 H        -0.016161         2.500047         2.673690
 H        -1.434105         3.506570         2.321383
 H        -2.900673        -0.085521         3.020349
 H        -0.137497        -0.227229         2.939242
 H        -1.021306        -1.318376         1.797822
