19
Iteration:  3763charge 0 multiplicity 1
 O         0.636902         0.207614         0.140202
 C        -0.574370         0.487452         0.713947
 C        -1.888566        -0.015445         0.042307
 C        -2.521543         0.905473         1.034018
 C        -1.210038         1.877315         0.857112
 C        -1.047730         2.528710         2.230613
 O        -1.839666         1.660411         3.141461
 C        -2.167260         0.514346         2.390920
 C        -0.828704        -0.114344         2.155173
 H         1.351487         0.274102         0.725807
 H        -1.913936         0.354161        -1.006800
 H        -1.999203        -1.179224        -0.064226
 H        -3.523374         1.300083         0.895414
 H        -1.079487         2.622521        -0.058034
 H         0.004142         2.688690         2.689277
 H        -1.597438         3.461424         2.202077
 H        -2.899825        -0.046787         2.950276
 H        -0.228801         0.189901         3.028719
 H        -0.907496        -1.250526         2.050054
