19
Iteration:  1000charge 0 multiplicity 1
 O         0.712740         0.340444         0.136792
 C        -0.532642         0.375664         0.727892
 C        -1.906642         0.060794         0.021061
 C        -2.539026         1.089159         0.973990
 C        -1.221675         1.793319         0.931727
 C        -1.044720         2.538402         2.312696
 O        -1.863799         1.720317         3.098211
 C        -2.154191         0.435203         2.389349
 C        -0.856599        -0.283526         2.173248
 H         0.862413        -0.493295        -0.135163
 H        -1.808351         0.409793        -0.975164
 H        -2.264117        -1.058445         0.063716
 H        -3.505708         1.579661         1.080939
 H        -0.999288         2.352735         0.040228
 H         0.093926         2.599596         2.692435
 H        -1.506216         3.486979         2.179776
 H        -3.019484        -0.103309         2.853369
 H        -0.199810         0.017840         2.998247
 H        -1.062062        -1.357323         2.093232
