19
Iteration:  4733charge 0 multiplicity 1
 O         0.680341         0.036900         0.026916
 C        -0.467454         0.427950         0.690898
 C        -1.821373         0.063682         0.022611
 C        -2.526331         1.008880         0.953615
 C        -1.234382         1.860979         0.985677
 C        -1.166970         2.510433         2.339811
 O        -1.926330         1.738499         3.270653
 C        -2.195328         0.495681         2.390820
 C        -0.758893        -0.152290         2.092319
 H         1.277190         0.871258        -0.247965
 H        -1.933425         0.482499        -0.933074
 H        -2.141517        -0.971227         0.055828
 H        -3.483599         1.535941         0.794716
 H        -1.029972         2.692598         0.172619
 H        -0.103170         2.634471         2.682505
 H        -1.586661         3.465664         2.270950
 H        -3.058058        -0.081573         2.883359
 H         0.048419         0.101037         2.850718
 H        -0.901114        -1.225061         2.014828
