19
Iteration:  2817
 O         0.743293         0.311978         0.150756
 C        -0.567502         0.430657         0.652671
 C        -1.919358        -0.011770        -0.023925
 C        -2.496894         0.862268         1.066886
 C        -1.302213         1.801084         0.888838
 C        -1.047551         2.464975         2.205904
 O        -1.927606         1.821129         3.116819
 C        -2.080701         0.465100         2.462075
 C        -0.815288        -0.157072         2.131143
 H         1.131522         0.186848         0.955152
 H        -2.131514         0.311747        -1.000962
 H        -2.357983        -1.019042        -0.002020
 H        -3.496136         1.422093         1.097329
 H        -1.329569         2.455009         0.055306
 H         0.063552         2.394164         2.533701
 H        -1.252366         3.439233         2.205159
 H        -2.731334        -0.138475         3.241798
 H        -0.165611         0.226639         2.982686
 H        -0.921075        -1.159983         2.050620
