19
Iteration:   716charge 0 multiplicity 1
 O         0.765694         0.248970         0.047458
 C        -0.542251         0.415778         0.693078
 C        -2.004995        -0.026021        -0.083436
 C        -2.462977         1.029904         0.951607
 C        -1.135774         1.844880         0.922916
 C        -1.023528         2.465524         2.323815
 O        -1.962478         1.709479         3.216690
 C        -2.198969         0.530041         2.442653
 C        -0.811575        -0.148697         2.230272
 H         1.217566        -0.685345         0.094611
 H        -1.919801         0.441534        -1.034487
 H        -2.471618        -1.105413        -0.173530
 H        -3.508063         1.582286         0.851267
 H        -0.945991         2.667251         0.134067
 H        -0.090472         2.606793         2.831147
 H        -1.646540         3.450505         2.396970
 H        -3.129711         0.004576         2.814853
 H        -0.043057         0.111553         2.934369
 H        -1.043966        -1.235627         2.164290
