19
Iteration:  4351charge 0 multiplicity 1
 O         0.757720         0.365712         0.243932
 C        -0.591946         0.452579         0.743993
 C        -1.905410        -0.006062        -0.006948
 C        -2.551578         0.959715         0.983755
 C        -1.257783         1.804136         0.884598
 C        -0.930402         2.388453         2.248487
 O        -1.894444         1.700052         3.190694
 C        -2.226939         0.484276         2.448664
 C        -0.856046        -0.138161         2.057757
 H         0.715085         0.686153        -0.748902
 H        -1.839843         0.439587        -1.028790
 H        -2.185223        -1.132931         0.055771
 H        -3.517560         1.389153         0.731188
 H        -1.133784         2.329556        -0.102359
 H         0.204743         2.232607         2.457759
 H        -1.123081         3.513675         2.412490
 H        -2.734661        -0.234225         3.047778
 H        -0.138492         0.118343         2.887646
 H        -1.113536        -1.223553         2.032000
