19
Iteration:  4976
 O         0.717064         0.244285         0.173261
 C        -0.612087         0.374935         0.774875
 C        -1.878798        -0.070111        -0.041194
 C        -2.574709         0.950360         0.977601
 C        -1.269099         1.834348         0.882237
 C        -1.250479         2.633493         2.156916
 O        -1.637699         1.712849         3.164950
 C        -2.126219         0.559048         2.447693
 C        -0.825023        -0.232813         2.157092
 H         1.386218         0.246881         1.019490
 H        -1.703241         0.395114        -0.985773
 H        -2.332906        -0.969942        -0.172929
 H        -3.626689         1.067894         0.839904
 H        -1.277150         2.474806        -0.004781
 H        -0.246467         3.016695         2.559248
 H        -1.915368         3.548791         1.933678
 H        -2.891725         0.111447         3.071669
 H        -0.237740         0.071446         2.982828
 H        -0.873771        -1.363546         2.092275
