19
Iteration:  3518
 O         0.607874         0.417402         0.138333
 C        -0.588165         0.372681         0.828770
 C        -1.839023        -0.170806         0.121073
 C        -2.552462         0.928714         0.995438
 C        -1.196110         1.851791         0.775965
 C        -0.957951         2.475736         2.211054
 O        -1.960321         1.750301         3.155268
 C        -2.163906         0.574087         2.385385
 C        -0.750518        -0.124340         2.129627
 H         1.198294        -0.484555         0.057053
 H        -1.957283         0.178894        -0.994076
 H        -2.142103        -1.224381         0.410213
 H        -3.646141         1.181392         0.757499
 H        -1.028520         2.385432        -0.051672
 H         0.083601         2.525858         2.628447
 H        -1.317456         3.406293         2.300097
 H        -3.016166         0.000801         2.855947
 H        -0.038712         0.199102         2.933790
 H        -0.818429        -1.226797         2.049053
