19
Iteration:  1663charge 0 multiplicity 1
 O         0.762926         0.201451         0.113206
 C        -0.499886         0.454459         0.729292
 C        -1.866778         0.043086        -0.022304
 C        -2.518893         1.030272         1.045495
 C        -1.200399         1.840614         0.908592
 C        -1.079743         2.585499         2.240629
 O        -1.964923         1.683594         3.221357
 C        -2.179925         0.457546         2.496460
 C        -0.805595        -0.220400         2.095523
 H         0.629269        -0.223596        -0.682829
 H        -1.965944         0.432232        -0.939533
 H        -2.173437        -1.002740        -0.013545
 H        -3.511225         1.595378         0.921434
 H        -1.188139         2.412382        -0.041966
 H        -0.130030         2.716060         2.633274
 H        -1.695056         3.520267         2.059167
 H        -3.035018        -0.103399         3.017292
 H         0.002975         0.081499         2.750136
 H        -0.776108        -1.374104         2.040115
