19
Iteration:  4122charge 0 multiplicity 1
 O         0.725828         0.171996         0.168200
 C        -0.552150         0.468312         0.735882
 C        -1.817942         0.032903        -0.097622
 C        -2.516526         1.050028         0.976348
 C        -1.224679         1.877711         0.899446
 C        -1.141214         2.569143         2.229844
 O        -1.881049         1.684999         3.256707
 C        -2.159570         0.495410         2.486087
 C        -0.802656        -0.232387         2.146597
 H         0.561737        -0.098617        -0.671129
 H        -1.841616         0.399993        -1.093038
 H        -2.054375        -1.050185        -0.112569
 H        -3.612132         1.379158         0.844273
 H        -1.106577         2.611814        -0.011997
 H        -0.106711         2.679916         2.600081
 H        -1.809747         3.572430         2.316526
 H        -2.823086        -0.294706         2.920089
 H        -0.008809        -0.190912         2.920765
 H        -1.026993        -1.344314         1.991906
