19
Iteration:  1131charge 0 multiplicity 1
 O         0.651944         0.255730         0.145611
 C        -0.601914         0.370535         0.721002
 C        -1.843209         0.078073        -0.063380
 C        -2.464079         1.027516         0.990171
 C        -1.229311         1.903907         0.947349
 C        -1.102044         2.577933         2.285346
 O        -1.801477         1.664264         3.135368
 C        -2.184903         0.489593         2.444770
 C        -0.845660        -0.313614         2.106744
 H         1.309998         0.045283         0.915418
 H        -2.098216         0.567138        -1.011187
 H        -2.271370        -1.000036        -0.022713
 H        -3.422875         1.390961         0.754650
 H        -1.087610         2.389723         0.048245
 H        -0.037261         2.751281         2.573940
 H        -1.693751         3.548808         2.324500
 H        -3.000383        -0.105572         2.885396
 H        -0.069077         0.058380         2.834690
 H        -0.876200        -1.465936         2.026199
