19
Iteration:  3326
 O         0.674358         0.215134         0.052250
 C        -0.542165         0.435040         0.782941
 C        -1.861722         0.005290         0.049581
 C        -2.546905         0.930271         0.975575
 C        -1.219379         1.830707         0.844898
 C        -1.210872         2.605055         2.184546
 O        -1.830497         1.728148         3.204969
 C        -2.115276         0.548193         2.457533
 C        -0.768002        -0.220971         2.201031
 H         1.341833        -0.158524         0.520836
 H        -1.865629         0.356337        -0.951226
 H        -2.205704        -1.033698         0.098553
 H        -3.604674         1.143683         0.747287
 H        -1.007115         2.527254        -0.166102
 H        -0.163039         2.833903         2.446200
 H        -1.851746         3.474370         2.024239
 H        -2.861733        -0.066806         3.050528
 H        -0.187251         0.038430         3.034335
 H        -0.817833        -1.300331         2.137773
