19
Iteration:  1857
 O         0.610104         0.402150         0.130366
 C        -0.588005         0.474293         0.741074
 C        -1.830778        -0.086619        -0.003675
 C        -2.488681         0.950621         0.934730
 C        -1.242846         1.822376         0.908347
 C        -1.017466         2.486477         2.213620
 O        -1.839002         1.762300         3.147645
 C        -2.168015         0.481513         2.444832
 C        -0.837610        -0.204606         2.207945
 H         0.849781        -0.534888         0.015792
 H        -1.998657         0.072179        -1.187351
 H        -2.146972        -1.153379         0.065166
 H        -3.566798         1.267042         0.905788
 H        -0.904857         2.564493         0.144573
 H         0.014324         2.444802         2.606947
 H        -1.298232         3.491647         2.395151
 H        -2.994320         0.021200         3.072980
 H        -0.148856        -0.084780         3.019995
 H        -0.956783        -1.287618         2.159989
