19
Iteration:  3928charge 0 multiplicity 1
 O         0.725675         0.240372         0.119667
 C        -0.545893         0.411032         0.731932
 C        -1.923258        -0.018070         0.017837
 C        -2.541147         1.032192         0.933298
 C        -1.219348         1.778659         0.941552
 C        -1.039469         2.405497         2.322959
 O        -1.936769         1.749093         3.213216
 C        -2.228904         0.572315         2.421107
 C        -0.768953        -0.192356         2.084628
 H         1.024691         1.078163        -0.296441
 H        -1.874867         0.358151        -1.048035
 H        -2.265148        -1.173159         0.107291
 H        -3.512322         1.411628         0.572510
 H        -0.963200         2.468953         0.055728
 H         0.000269         2.424726         2.842967
 H        -1.201993         3.449038         2.214053
 H        -2.877756        -0.103044         2.991944
 H         0.057787         0.195065         2.714727
 H        -0.706443        -1.308298         2.096562
