19
Iteration:   578
 O         0.646941         0.103439         0.007361
 C        -0.545657         0.337814         0.713698
 C        -1.844805         0.079740        -0.032798
 C        -2.544978         1.036997         0.960311
 C        -1.153217         1.868308         1.035374
 C        -1.080362         2.505504         2.347202
 O        -1.999634         1.740465         3.191912
 C        -2.130243         0.501818         2.404674
 C        -0.789234        -0.134788         2.112751
 H         1.318614         0.327208         0.607743
 H        -1.688427         0.521134        -1.069787
 H        -2.211063        -0.949739        -0.056396
 H        -3.626681         1.340866         0.757000
 H        -0.842250         2.534979         0.203057
 H        -0.079061         2.370228         2.759969
 H        -1.351197         3.673899         2.196936
 H        -2.945518        -0.166297         2.901831
 H        -0.033516         0.242831         2.853972
 H        -0.738962        -1.239528         2.170405
