19
Iteration:   237
 O         0.687465         0.116003         0.179757
 C        -0.560523         0.416430         0.844223
 C        -1.901499         0.059741         0.009105
 C        -2.593821         1.118466         0.877014
 C        -1.212837         1.880562         0.933626
 C        -1.061603         2.568668         2.281551
 O        -1.896904         1.686815         3.116033
 C        -2.144096         0.463718         2.389555
 C        -0.778435        -0.276738         2.106463
 H         1.277042         0.934491         0.315641
 H        -1.790673         0.332873        -1.006344
 H        -2.275236        -1.026785         0.146843
 H        -3.539030         1.639538         0.989545
 H        -0.887469         2.418405         0.026410
 H         0.036477         2.484064         2.571787
 H        -1.413957         3.515262         2.290640
 H        -2.908104        -0.122904         2.820321
 H        -0.096700         0.075149         2.889091
 H        -0.916328        -1.364799         1.936499
