19
Iteration:  2398charge 0 multiplicity 1
 O         0.648120         0.196667         0.046062
 C        -0.560965         0.379694         0.663904
 C        -1.771745        -0.055515        -0.015604
 C        -2.563450         0.894492         1.055251
 C        -1.322275         1.836446         0.895527
 C        -1.046714         2.492509         2.272502
 O        -1.959438         1.814277         3.165362
 C        -2.111029         0.538852         2.501331
 C        -0.770298        -0.118243         2.142533
 H         1.373595         0.520309         0.588152
 H        -1.824229         0.366423        -1.093519
 H        -1.938899        -1.091104        -0.060556
 H        -3.651996         1.198015         0.973722
 H        -1.110993         2.634244         0.026725
 H         0.000657         2.472134         2.518882
 H        -1.463447         3.580000         2.278896
 H        -2.693063        -0.102480         3.131624
 H        -0.047744         0.306254         2.941233
 H        -0.807795        -1.172872         2.133757
