19
Iteration:  1456
 O         0.728909         0.252750         0.208628
 C        -0.577140         0.411625         0.635343
 C        -1.917180         0.031551        -0.038942
 C        -2.553739         0.949580         1.031366
 C        -1.198444         1.844092         0.926099
 C        -1.052798         2.466181         2.262641
 O        -1.865584         1.718868         3.204341
 C        -2.195072         0.452315         2.412900
 C        -0.807102        -0.114363         2.008752
 H         1.194714         0.150166         0.964083
 H        -2.002367         0.476620        -0.971046
 H        -2.350362        -1.043420         0.077674
 H        -3.464324         1.496435         0.783690
 H        -1.273667         2.676700         0.235891
 H        -0.021602         2.453094         2.733208
 H        -1.391633         3.436630         2.130104
 H        -2.897402        -0.164510         3.044776
 H        -0.020312         0.210607         2.591913
 H        -0.862166        -1.224001         1.953542
