19
Iteration:   179charge 0 multiplicity 1
 O         0.693986         0.266707         0.264859
 C        -0.600050         0.344520         0.771946
 C        -1.906934         0.081617        -0.011476
 C        -2.408390         1.076571         0.995469
 C        -1.195175         1.847396         0.900633
 C        -1.054165         2.473686         2.179776
 O        -1.939621         1.779168         3.105972
 C        -2.100612         0.492744         2.442860
 C        -0.868224        -0.422973         2.091866
 H         0.940880         1.133850         0.106411
 H        -1.999372         0.560539        -1.051988
 H        -2.339048        -0.860321        -0.101133
 H        -3.401022         1.597588         1.068657
 H        -1.069613         2.519233         0.007154
 H         0.004132         2.455884         2.568574
 H        -1.289101         3.564699         2.253360
 H        -3.040651         0.008645         2.856879
 H        -0.015757        -0.459577         2.787813
 H        -1.151017        -1.474272         2.133183
