19
Iteration:  3264
 O         0.726530         0.340183         0.132160
 C        -0.593246         0.427438         0.728617
 C        -1.885874        -0.079160         0.043552
 C        -2.577182         0.988316         1.046101
 C        -1.257438         1.804538         0.890000
 C        -1.005214         2.496361         2.151362
 O        -1.851226         1.702907         3.112752
 C        -2.196571         0.518452         2.418135
 C        -0.820369        -0.171794         2.158520
 H         1.228977         0.250238         0.876565
 H        -2.009921         0.021447        -1.046405
 H        -2.034726        -1.185670         0.372787
 H        -3.565868         1.376397         0.864969
 H        -1.302790         2.331091        -0.019466
 H        -0.012190         2.682041         2.607445
 H        -1.485069         3.478967         2.158227
 H        -2.933624         0.014644         3.023588
 H        -0.129252         0.317922         2.945113
 H        -0.624653        -1.276088         2.067738
