19
Iteration:  4291
 O         0.738467         0.087219         0.119946
 C        -0.499931         0.434456         0.714480
 C        -1.821020         0.069792        -0.090178
 C        -2.500385         0.943852         0.973689
 C        -1.266044         1.938794         0.957143
 C        -1.192115         2.599281         2.340728
 O        -1.815634         1.661566         3.198385
 C        -2.180636         0.530685         2.465205
 C        -0.833151        -0.227399         2.156033
 H         0.796860         0.540490        -0.656745
 H        -1.991578         0.495224        -1.100593
 H        -1.991842        -0.960934        -0.293182
 H        -3.513651         1.351299         0.775989
 H        -1.183407         2.639654         0.132367
 H        -0.186820         2.902206         2.446808
 H        -1.982457         3.472108         2.326603
 H        -3.048799        -0.016748         2.957971
 H        -0.045700        -0.091075         2.899893
 H        -0.983937        -1.287706         2.233080
