19
Iteration:  1350charge 0 multiplicity 1
 O         0.644666         0.093117         0.059295
 C        -0.545855         0.476142         0.692788
 C        -1.852394         0.056146        -0.055841
 C        -2.479772         0.992496         0.926849
 C        -1.267206         1.919370         0.879743
 C        -1.040883         2.406745         2.339168
 O        -1.970196         1.710349         3.194592
 C        -2.108308         0.475333         2.486791
 C        -0.802079        -0.077736         2.168765
 H         1.368228         0.342877         0.593325
 H        -1.972467         0.448017        -1.051657
 H        -2.114084        -0.997102        -0.171275
 H        -3.539376         1.296706         0.739279
 H        -1.187581         2.786868         0.258622
 H        -0.043086         2.425849         2.713980
 H        -1.373902         3.543287         2.489271
 H        -2.933470        -0.113701         3.011722
 H        -0.032058         0.137649         2.997471
 H        -0.706087        -1.205750         2.103859
