19
Iteration:   788
 O         0.772739         0.358623         0.241747
 C        -0.594308         0.360035         0.708815
 C        -1.932367        -0.018770        -0.041113
 C        -2.618249         1.038685         0.979449
 C        -1.170038         1.832997         0.931625
 C        -1.013387         2.444532         2.233606
 O        -1.811563         1.699971         3.183665
 C        -2.254514         0.535881         2.415025
 C        -0.807695        -0.200649         2.099478
 H         0.935028        -0.647652        -0.042442
 H        -1.877931         0.642625        -0.991767
 H        -2.406212        -0.989405        -0.214961
 H        -3.542081         1.498321         0.806253
 H        -1.141236         2.476926         0.052766
 H         0.011961         2.506955         2.692428
 H        -1.543827         3.320015         2.074436
 H        -2.918519         0.105189         3.123563
 H        -0.102828         0.019049         2.936995
 H        -0.995187        -1.269119         1.851833
