19
Iteration:   191charge 0 multiplicity 1
 O         0.775536         0.238865         0.251608
 C        -0.573707         0.352274         0.732488
 C        -1.900245         0.050180        -0.063294
 C        -2.586908         1.011059         1.013340
 C        -1.222833         1.799944         0.911627
 C        -0.995262         2.560443         2.279807
 O        -1.864765         1.788691         3.145294
 C        -2.209838         0.542427         2.442098
 C        -0.894364        -0.402247         2.071202
 H         1.173344         1.223025         0.203113
 H        -1.717046         0.545848        -1.064350
 H        -2.241337        -0.976638        -0.104933
 H        -3.540350         1.545561         0.703951
 H        -1.178047         2.365930        -0.069068
 H         0.096309         2.445978         2.571938
 H        -1.353850         3.566109         2.166745
 H        -2.885567         0.007181         3.149269
 H        -0.080487        -0.237583         2.794937
 H        -1.141872        -1.392848         1.670497
