19
Iteration:  3257
 O         0.706702         0.352453         0.071346
 C        -0.581458         0.437789         0.739477
 C        -1.863197        -0.078468         0.038696
 C        -2.544674         0.909184         0.962251
 C        -1.203687         1.825897         0.840606
 C        -0.998290         2.493474         2.160398
 O        -1.862645         1.766024         3.187204
 C        -2.225631         0.458070         2.477041
 C        -0.867837        -0.193850         2.177673
 H         1.295798         0.299722         0.911225
 H        -2.181414         0.045619        -1.018652
 H        -1.892708        -1.077243         0.304561
 H        -3.521143         1.403779         0.893646
 H        -1.295571         2.508445        -0.058751
 H        -0.034944         2.486372         2.627291
 H        -1.429700         3.574495         2.168596
 H        -3.020205         0.050112         3.089908
 H        -0.252487         0.356694         2.889361
 H        -0.649902        -1.260074         2.305290
