19
Iteration:   546
 O         0.656595         0.252474         0.070037
 C        -0.576018         0.399692         0.752813
 C        -1.924761         0.027238         0.056480
 C        -2.445100         1.055513         0.978141
 C        -1.104318         1.866144         0.929932
 C        -1.089182         2.497521         2.310271
 O        -1.934131         1.686470         3.115150
 C        -2.125090         0.477569         2.386965
 C        -0.856592        -0.212696         2.118568
 H         1.344469         0.121067         0.794153
 H        -2.016671         0.249488        -1.046773
 H        -2.300279        -0.979758         0.144614
 H        -3.472722         1.470681         0.937840
 H        -0.964439         2.598481         0.119780
 H        -0.117390         2.502203         2.666183
 H        -1.330912         3.627065         2.212153
 H        -3.000117        -0.083174         2.887539
 H        -0.120406        -0.058507         2.946120
 H        -1.024545        -1.294684         1.982540
