19
Iteration:  1104
 O         0.698641         0.307259         0.107712
 C        -0.537917         0.405865         0.754394
 C        -1.829172         0.025543        -0.024875
 C        -2.562259         1.004484         0.963944
 C        -1.206001         1.938602         0.892804
 C        -1.101199         2.539157         2.288311
 O        -1.749263         1.694684         3.232178
 C        -2.204575         0.491170         2.374981
 C        -0.911986        -0.315903         2.135293
 H         1.293601        -0.284505         0.742334
 H        -2.052402         0.362082        -1.055227
 H        -2.213902        -0.953097         0.049802
 H        -3.689596         1.256811         0.796941
 H        -1.041033         2.481052        -0.131861
 H        -0.064250         2.777256         2.591548
 H        -1.620882         3.650329         2.189500
 H        -2.943324        -0.190449         2.793665
 H        -0.334435        -0.306936         3.057472
 H        -1.173581        -1.376821         1.921674
