19
Iteration:   691
 O         0.636787         0.255413         0.190109
 C        -0.598211         0.425474         0.721519
 C        -1.885154         0.088367        -0.016901
 C        -2.517044         1.046192         0.974910
 C        -1.174148         1.862183         0.920748
 C        -0.993329         2.517473         2.258679
 O        -1.909623         1.743674         3.171991
 C        -2.166674         0.387530         2.386272
 C        -0.837323        -0.255175         2.089435
 H         1.340244        -0.479338         0.528544
 H        -2.024971         0.378161        -1.062114
 H        -2.149299        -0.983721         0.112441
 H        -3.489802         1.400140         0.782416
 H        -1.003687         2.500492         0.058228
 H         0.002017         2.492244         2.709871
 H        -1.372389         3.693887         2.386795
 H        -2.885856        -0.184493         2.878755
 H        -0.127713         0.190110         2.804590
 H        -0.760569        -1.345337         2.001853
