19
Iteration:  2400charge 0 multiplicity 1
 O         0.626613         0.188589         0.061364
 C        -0.575608         0.394973         0.666875
 C        -1.772254        -0.061734        -0.022736
 C        -2.568726         0.883091         1.048632
 C        -1.332370         1.851107         0.893603
 C        -1.043899         2.483864         2.301599
 O        -1.947543         1.811859         3.155608
 C        -2.124423         0.554817         2.494910
 C        -0.758173        -0.106306         2.134090
 H         1.472215         0.539550         0.609967
 H        -1.707025         0.334028        -1.133745
 H        -1.875709        -1.169443        -0.187044
 H        -3.574571         1.183884         1.026848
 H        -1.152092         2.534238         0.026481
 H         0.016104         2.433720         2.458148
 H        -1.417629         3.609892         2.286059
 H        -2.660719        -0.111815         3.159321
 H         0.019632         0.324134         2.950073
 H        -0.786258        -1.176922         2.136504
