19
Iteration:  3619
 O         0.641206         0.290328         0.066839
 C        -0.610511         0.392821         0.729121
 C        -1.800409        -0.066264        -0.020357
 C        -2.541658         0.915271         0.951673
 C        -1.242642         1.765961         0.943177
 C        -1.127761         2.581844         2.234959
 O        -1.817388         1.810093         3.181204
 C        -2.179386         0.548720         2.473948
 C        -0.768016        -0.204994         2.159377
 H         1.226143        -0.093818         0.729096
 H        -1.737137         0.129885        -1.090666
 H        -1.945112        -1.220889         0.079233
 H        -3.551149         1.222082         0.910277
 H        -1.115741         2.463077         0.077378
 H        -0.105682         2.872072         2.599831
 H        -1.659067         3.459323         1.993141
 H        -2.968164         0.133515         3.122740
 H         0.038532         0.067817         2.833138
 H        -1.015122        -1.326856         2.122387
