19
Iteration:  1105charge 0 multiplicity 1
 O         0.693894         0.303747         0.111295
 C        -0.530234         0.414441         0.760982
 C        -1.824875         0.028133        -0.023305
 C        -2.574749         1.010274         0.963176
 C        -1.200264         1.931063         0.887572
 C        -1.104081         2.534912         2.285136
 O        -1.746847         1.694001         3.234477
 C        -2.205369         0.488056         2.372657
 C        -0.903988        -0.312434         2.129700
 H         1.265580        -0.249761         0.714325
 H        -2.008713         0.362515        -1.031996
 H        -2.226631        -0.980956         0.062575
 H        -3.703043         1.279936         0.829617
 H        -1.046273         2.483594        -0.131010
 H        -0.084938         2.752783         2.605390
 H        -1.628031         3.668597         2.151371
 H        -2.920256        -0.194530         2.797620
 H        -0.347570        -0.312448         3.071191
 H        -1.216717        -1.393268         1.899872
