19
Iteration:  3123
 O         0.696812         0.425611         0.191183
 C        -0.614100         0.377623         0.751083
 C        -1.954570        -0.142936        -0.066320
 C        -2.563267         0.916294         0.979214
 C        -1.224896         1.788680         0.862804
 C        -1.027653         2.530935         2.259835
 O        -1.866993         1.800943         3.174831
 C        -2.114288         0.568787         2.432506
 C        -0.732230        -0.241510         2.119849
 H         1.212972        -0.247083         0.743310
 H        -2.113882         0.254087        -1.060170
 H        -2.292972        -1.187860        -0.082265
 H        -3.605767         1.262748         0.786326
 H        -1.386984         2.261040        -0.013689
 H        -0.016383         2.550250         2.555531
 H        -1.364308         3.659837         2.196496
 H        -2.852324        -0.060523         2.956555
 H        -0.024077         0.144758         2.911322
 H        -0.953286        -1.318711         2.094511
