19
Iteration:  3648charge 0 multiplicity 1
 O         0.746239         0.241157         0.078229
 C        -0.536164         0.399878         0.759283
 C        -1.948796         0.007480         0.120990
 C        -2.554914         0.949989         1.024410
 C        -1.256815         1.804582         0.880725
 C        -1.063457         2.509413         2.203086
 O        -1.966783         1.774265         3.063540
 C        -2.117447         0.508170         2.448636
 C        -0.729446        -0.199098         2.151869
 H         1.314877         0.843752         0.450289
 H        -1.970732         0.282958        -0.965981
 H        -2.235832        -1.016169         0.230426
 H        -3.624437         1.348363         1.020068
 H        -1.159439         2.362173         0.026847
 H         0.000277         2.422602         2.595567
 H        -1.402662         3.569247         2.177679
 H        -2.851968        -0.045355         3.110514
 H         0.020201        -0.068253         2.958124
 H        -0.973448        -1.204599         2.064545
