19
Iteration:  1899
 O         0.739160         0.427772         0.185578
 C        -0.628599         0.382724         0.697403
 C        -1.977576        -0.048856        -0.054283
 C        -2.513194         0.960460         1.028846
 C        -1.206974         1.766629         0.874717
 C        -1.038969         2.488131         2.243188
 O        -1.871555         1.739487         3.172587
 C        -2.121946         0.542823         2.467944
 C        -0.794810        -0.197458         2.159230
 H         1.100455        -0.545803         0.432228
 H        -2.291776         0.214438        -1.155515
 H        -2.265825        -1.085672        -0.015550
 H        -3.456478         1.506812         0.753058
 H        -1.296981         2.376975        -0.072137
 H         0.019945         2.553830         2.464243
 H        -1.472709         3.505564         1.881839
 H        -2.911012        -0.062986         2.972176
 H         0.118324        -0.062194         2.840299
 H        -0.932267        -1.292091         2.181527
