19
Iteration:  1948
 O         0.652320         0.212531         0.022823
 C        -0.518096         0.439376         0.740889
 C        -1.763925        -0.082796         0.020509
 C        -2.484042         0.991621         1.030603
 C        -1.264759         1.916139         0.837610
 C        -1.175485         2.611871         2.266923
 O        -1.819596         1.684824         3.202419
 C        -2.193510         0.531931         2.471798
 C        -0.849362        -0.164163         2.156871
 H         0.984391        -0.546679         0.395535
 H        -1.745383         0.245049        -0.984432
 H        -2.120761        -1.176847        -0.066942
 H        -3.535265         1.236864         0.914685
 H        -1.316126         2.473428        -0.087764
 H        -0.091641         2.748579         2.488841
 H        -1.586867         3.533884         2.340728
 H        -2.823922        -0.105544         3.092060
 H        -0.203716         0.055165         2.955207
 H        -0.787248        -1.235715         2.055373
