19
Iteration:  3048
 O         0.696952         0.253663         0.082595
 C        -0.512084         0.402036         0.743060
 C        -1.876500         0.030111         0.033537
 C        -2.520840         0.946784         1.057714
 C        -1.191687         1.750281         0.920317
 C        -1.185622         2.612414         2.204151
 O        -1.956016         1.782801         3.175177
 C        -2.119546         0.493582         2.442464
 C        -0.691460        -0.244361         2.185088
 H         0.740666        -0.467804        -0.507722
 H        -1.849647         0.363364        -0.962690
 H        -2.214144        -0.966765        -0.051638
 H        -3.408908         1.578118         0.869774
 H        -0.976470         2.315818        -0.065221
 H        -0.220553         3.018454         2.575605
 H        -1.903904         3.426433         2.039228
 H        -2.994537        -0.039567         2.854777
 H         0.039985         0.095906         2.943933
 H        -0.786617        -1.287560         2.162471
