19
Iteration:  4970
 O         0.714815         0.202193         0.210005
 C        -0.579664         0.430233         0.783273
 C        -1.908288        -0.044597        -0.046002
 C        -2.567806         0.929931         1.012108
 C        -1.271029         1.856281         0.846128
 C        -1.216234         2.662988         2.137308
 O        -1.649047         1.679844         3.177547
 C        -2.135453         0.507809         2.421884
 C        -0.845110        -0.212756         2.183347
 H         1.273009         0.598614         0.895868
 H        -1.788868         0.395912        -1.124871
 H        -2.358014        -1.153438        -0.308803
 H        -3.653356         1.230751         0.879721
 H        -1.198219         2.457581        -0.069255
 H        -0.217351         3.071963         2.275681
 H        -1.905254         3.480148         2.050829
 H        -2.843094        -0.062286         3.053791
 H        -0.099524         0.094343         2.989226
 H        -0.865243        -1.282767         2.114869
