19
Iteration:  1854charge 0 multiplicity 1
 O         0.633150         0.396385         0.132255
 C        -0.587226         0.450472         0.735883
 C        -1.856698        -0.069162        -0.009648
 C        -2.514325         0.934791         0.937280
 C        -1.228027         1.823277         0.891442
 C        -1.037180         2.471980         2.229967
 O        -1.850269         1.767167         3.162729
 C        -2.144995         0.477613         2.476096
 C        -0.845729        -0.189491         2.174555
 H         0.914658        -0.611988        -0.033505
 H        -1.922610         0.095456        -1.121428
 H        -2.140286        -1.093396         0.061317
 H        -3.513697         1.355901         0.904776
 H        -0.840764         2.565034         0.162769
 H         0.010790         2.410274         2.544533
 H        -1.370542         3.627938         2.292489
 H        -2.975233         0.054525         3.012586
 H        -0.119451        -0.019394         3.075711
 H        -0.895286        -1.276522         2.165003
