19
Iteration:   947
 O         0.715959         0.253201         0.163814
 C        -0.524673         0.412750         0.768833
 C        -1.919941         0.079301         0.041164
 C        -2.604915         0.995977         0.954380
 C        -1.234653         1.871352         0.899757
 C        -1.011969         2.511503         2.256567
 O        -1.855849         1.687749         3.154745
 C        -2.250350         0.528866         2.419864
 C        -0.774013        -0.256465         2.059539
 H         1.213619        -0.403681         0.556867
 H        -1.970639         0.528054        -0.927340
 H        -2.128898        -0.954675        -0.088167
 H        -3.550233         1.464848         0.778234
 H        -1.050766         2.431550         0.029686
 H         0.044712         2.386020         2.627227
 H        -1.423084         3.595974         2.456328
 H        -3.054759         0.018918         3.036889
 H        -0.059036        -0.045041         2.857266
 H        -0.832128        -1.285893         1.785737
