19
Iteration:  1791charge 0 multiplicity 1
 O         0.650829         0.228936         0.036800
 C        -0.563507         0.430535         0.761953
 C        -1.816022        -0.015459         0.028615
 C        -2.496662         0.957883         0.983649
 C        -1.304858         1.871376         0.954270
 C        -1.151009         2.562645         2.258417
 O        -1.831932         1.710834         3.221617
 C        -2.162588         0.538493         2.400354
 C        -0.794351        -0.187960         2.150884
 H         1.230784        -0.581642         0.422750
 H        -1.816027         0.243622        -1.181664
 H        -1.944130        -1.137804        -0.005574
 H        -3.484257         1.396797         0.751363
 H        -1.025941         2.484773         0.068707
 H        -0.055324         2.835090         2.437884
 H        -1.506893         3.543015         2.229479
 H        -3.088823         0.009804         2.819924
 H        -0.056591         0.078702         2.890997
 H        -0.785373        -1.287089         1.988630
