19
Iteration:  2421
 O         0.608716         0.189161         0.126830
 C        -0.583239         0.481899         0.728201
 C        -1.830442        -0.008366         0.032363
 C        -2.548806         0.878658         0.955568
 C        -1.333906         1.869692         0.867127
 C        -1.018990         2.522092         2.186307
 O        -1.915871         1.740091         3.155185
 C        -2.094707         0.458773         2.464784
 C        -0.708224        -0.120763         2.192532
 H         1.364668         0.503499         0.714256
 H        -2.145341         0.304715        -1.032567
 H        -2.175902        -1.010111         0.134933
 H        -3.539120         1.187484         0.669870
 H        -1.367250         2.633157         0.014273
 H        -0.004894         2.334123         2.492417
 H        -1.275296         3.652806         2.389197
 H        -2.854175        -0.131440         2.969237
 H         0.045737         0.338976         2.971439
 H        -0.614027        -1.160999         2.050653
