19
Iteration:  2296
 O         0.645738         0.271957         0.140266
 C        -0.620389         0.442328         0.726330
 C        -1.932945        -0.134008         0.007345
 C        -2.511920         0.994617         1.042709
 C        -1.236809         1.831725         0.877557
 C        -1.060086         2.528452         2.239127
 O        -1.919721         1.770340         3.126075
 C        -2.051720         0.489124         2.420642
 C        -0.731502        -0.186195         2.113343
 H         1.225074         0.445069         0.908617
 H        -2.085503         0.287551        -0.960891
 H        -2.179786        -1.208739         0.026120
 H        -3.600030         1.399785         0.911760
 H        -1.119184         2.555063        -0.049338
 H        -0.072193         2.589992         2.749040
 H        -1.459301         3.559095         2.116111
 H        -2.738511        -0.101418         3.077343
 H         0.081446         0.054533         2.712140
 H        -0.821750        -1.341547         2.129541
