19
Iteration:  4077
 O         0.696367         0.262806         0.193380
 C        -0.570276         0.446684         0.750486
 C        -1.900158         0.005172         0.010619
 C        -2.467412         1.003804         0.986526
 C        -1.256655         1.884950         0.875604
 C        -0.997995         2.387317         2.227881
 O        -1.989157         1.673113         3.160728
 C        -2.139364         0.518569         2.416382
 C        -0.764664        -0.175993         2.161554
 H         0.793488         0.838835        -0.512443
 H        -1.926626         0.275001        -1.030761
 H        -2.193908        -1.021945         0.132429
 H        -3.505550         1.544185         0.841647
 H        -1.095956         2.551745        -0.041458
 H         0.001306         2.040077         2.549578
 H        -1.196021         3.572418         2.300247
 H        -3.084059         0.158915         2.900691
 H        -0.025372         0.056224         2.908607
 H        -0.820577        -1.332281         2.154944
