19
Iteration:  3938
 O         0.748296         0.251762         0.153939
 C        -0.602801         0.312430         0.660481
 C        -1.926367         0.015634        -0.042492
 C        -2.539871         1.010237         0.971316
 C        -1.192868         1.810316         0.936950
 C        -0.978478         2.488321         2.348461
 O        -1.994449         1.724118         3.151485
 C        -2.159476         0.511123         2.433348
 C        -0.737472        -0.167990         2.146057
 H         0.795656         1.079584        -0.474781
 H        -2.045133         0.270197        -1.134046
 H        -2.318437        -1.123468         0.116930
 H        -3.457616         1.632813         0.885633
 H        -1.096798         2.579359         0.035396
 H         0.100213         2.354000         2.735162
 H        -1.368387         3.484374         2.386215
 H        -2.939397        -0.107381         2.900326
 H         0.002417         0.174256         2.863605
 H        -0.979777        -1.217270         2.363092
