19
Iteration:  1003charge 0 multiplicity 1
 O         0.702009         0.346071         0.129402
 C        -0.540275         0.377608         0.732006
 C        -1.907948         0.028377         0.007374
 C        -2.506764         1.095822         0.988970
 C        -1.217103         1.804882         0.895366
 C        -1.039299         2.534462         2.358174
 O        -1.868839         1.707696         3.077008
 C        -2.168551         0.431138         2.403730
 C        -0.861035        -0.273328         2.192383
 H         0.982379        -0.581689        -0.230425
 H        -1.862305         0.394056        -1.041868
 H        -2.196111        -0.952846         0.012425
 H        -3.394128         1.641794         1.103710
 H        -1.108641         2.370274         0.007981
 H         0.030224         2.656281         2.606779
 H        -1.491649         3.601232         2.212036
 H        -3.047450        -0.061747         2.878378
 H        -0.218078        -0.091013         3.073497
 H        -1.025605        -1.311300         2.150508
