19
Iteration:  2271charge 0 multiplicity 1
 O         0.676956         0.312121        -0.078331
 C        -0.506531         0.431671         0.813508
 C        -1.854288        -0.125634         0.098800
 C        -2.503108         0.985804         0.954162
 C        -1.243406         1.809078         0.855474
 C        -1.073848         2.519352         2.254200
 O        -1.879792         1.707148         3.189481
 C        -2.270260         0.549139         2.436348
 C        -0.799719        -0.153079         2.216325
 H         1.397736         0.334840         0.450558
 H        -2.021519         0.146333        -1.031163
 H        -2.397257        -1.179397         0.204123
 H        -3.407013         1.376565         0.604889
 H        -1.142470         2.338986        -0.048771
 H        -0.023989         2.396946         2.785519
 H        -1.303484         3.540822         2.329786
 H        -3.001079         0.123277         3.115300
 H        -0.104470         0.173105         3.032637
 H        -0.634944        -1.245805         2.236757
