19
Iteration:  3189
 O         0.692773         0.083673         0.089122
 C        -0.529476         0.383852         0.658820
 C        -1.854221        -0.008585         0.003636
 C        -2.574153         1.026545         0.993841
 C        -1.250512         1.854518         0.908934
 C        -1.216220         2.572082         2.268893
 O        -1.879405         1.707060         3.228097
 C        -2.099109         0.544514         2.396622
 C        -0.749136        -0.144960         2.153139
 H         1.460668         0.609452         0.549703
 H        -1.759447         0.130391        -1.073317
 H        -2.107600        -1.074273         0.084663
 H        -3.533940         1.499791         0.712702
 H        -1.168745         2.464922         0.123589
 H        -0.247080         2.820567         2.623726
 H        -1.892732         3.545682         2.203477
 H        -2.707138        -0.102242         2.996086
 H         0.121548         0.437585         2.612392
 H        -0.803048        -1.220430         2.494218
