19
Iteration:  2328
 O         0.731394         0.148187         0.110316
 C        -0.566153         0.449122         0.701503
 C        -1.765604        -0.010184        -0.028337
 C        -2.620074         0.932157         1.075014
 C        -1.411380         1.885676         0.918079
 C        -1.159314         2.580685         2.181336
 O        -1.772381         1.742135         3.176323
 C        -2.113366         0.517292         2.454833
 C        -0.808172        -0.191185         2.146392
 H         1.512299         0.223677         0.813789
 H        -1.950399         0.643055        -0.858070
 H        -2.002665        -1.117790        -0.230551
 H        -3.713136         1.297001         0.979452
 H        -1.365365         2.384809        -0.090448
 H        -0.057082         2.692231         2.484682
 H        -1.571857         3.503425         1.873868
 H        -2.722001        -0.119115         3.149208
 H        -0.137819         0.113536         2.876896
 H        -0.900871        -1.322774         2.040065
