19
Iteration:  2020
 O         0.688755         0.331607         0.196990
 C        -0.608644         0.434490         0.703830
 C        -1.837659        -0.143123        -0.011979
 C        -2.610411         0.845213         0.931412
 C        -1.392762         1.873650         0.844279
 C        -1.005525         2.478114         2.234064
 O        -1.760298         1.795146         3.203387
 C        -2.172620         0.536586         2.539002
 C        -0.836460        -0.088458         2.107548
 H         0.959327        -0.516340         0.241113
 H        -1.674942         0.196938        -1.080327
 H        -1.974774        -1.137560        -0.076043
 H        -3.490294         1.440158         0.767144
 H        -1.289657         2.505660        -0.014537
 H         0.051595         2.410728         2.531161
 H        -1.215811         3.673688         2.352090
 H        -2.867680        -0.075642         3.134155
 H         0.132425        -0.036787         2.695447
 H        -0.815538        -1.209714         1.882818
