19
Iteration:  1966charge 0 multiplicity 1
 O         0.648191         0.302481         0.015744
 C        -0.540159         0.376550         0.729140
 C        -1.910535        -0.071003         0.054052
 C        -2.535309         0.943169         0.913425
 C        -1.188768         1.798511         0.983535
 C        -1.120549         2.598581         2.270788
 O        -1.860401         1.771601         3.203416
 C        -2.151840         0.555219         2.410762
 C        -0.768073        -0.222769         2.161648
 H         1.173209        -0.336564         0.380209
 H        -1.942646         0.181439        -1.071721
 H        -2.031074        -1.136686         0.230272
 H        -3.514877         1.436086         0.787657
 H        -0.941521         2.456596         0.156109
 H        -0.138827         2.798604         2.681975
 H        -1.837823         3.528421         2.082771
 H        -2.900722        -0.079776         2.945950
 H         0.065346         0.091396         2.810244
 H        -0.848854        -1.350251         2.218423
