19
Iteration:  4946
 O         0.730982         0.169606         0.307639
 C        -0.593401         0.460846         0.724775
 C        -1.863466        -0.012813         0.050005
 C        -2.551882         0.982595         1.053965
 C        -1.290659         1.850798         0.868184
 C        -1.165741         2.576493         2.167559
 O        -1.811430         1.736326         3.101436
 C        -2.101901         0.519893         2.461145
 C        -0.786170        -0.257345         2.053969
 H         1.005519         0.941876        -0.145157
 H        -1.909343         0.242322        -1.102172
 H        -2.238238        -1.132977         0.087783
 H        -3.594029         1.220938         0.856617
 H        -1.382319         2.440258         0.018166
 H        -0.082158         2.669943         2.471189
 H        -1.579818         3.528201         2.022705
 H        -2.792286         0.022018         3.065615
 H        -0.003425        -0.015473         2.759804
 H        -0.788949        -1.353293         1.885690
