19
Iteration:  3340
 O         0.607234         0.252478         0.056606
 C        -0.586594         0.339613         0.751977
 C        -1.840336        -0.127941         0.031443
 C        -2.473705         1.055521         0.957990
 C        -1.275858         1.895651         0.928367
 C        -1.160903         2.643052         2.196357
 O        -1.874837         1.721964         3.131761
 C        -2.119051         0.489700         2.440066
 C        -0.725416        -0.218462         2.215492
 H         1.304785         0.010444         0.830052
 H        -1.804468        -0.002112        -1.064717
 H        -2.089652        -1.240212         0.226367
 H        -3.386259         1.614049         0.968476
 H        -1.129683         2.488556        -0.044630
 H        -0.139693         2.875551         2.668519
 H        -1.700037         3.523652         2.235048
 H        -2.902199        -0.052208         2.915418
 H         0.193477         0.087359         2.791324
 H        -0.782437        -1.312418         2.204583
