19
Iteration:  1160
 O         0.732959         0.122264         0.104497
 C        -0.566754         0.448874         0.722260
 C        -1.882789         0.070735        -0.064929
 C        -2.530054         1.033786         0.983086
 C        -1.251728         1.818795         0.967306
 C        -1.068375         2.469881         2.315835
 O        -1.929686         1.696658         3.190102
 C        -2.186568         0.536793         2.490534
 C        -0.759934        -0.164842         2.031761
 H         1.392304         0.504168         0.609864
 H        -1.967554         0.583392        -1.005015
 H        -2.267750        -0.950314        -0.087327
 H        -3.524699         1.556558         0.789370
 H        -1.119235         2.475149         0.049151
 H        -0.033398         2.455806         2.638751
 H        -1.536825         3.534047         2.317021
 H        -2.839578        -0.163964         2.958181
 H        -0.006014         0.095394         2.752198
 H        -0.891793        -1.260092         1.925729
