19
Iteration:  4873
 O         0.669538         0.141295         0.063850
 C        -0.565633         0.373122         0.719231
 C        -1.855571        -0.062192         0.015422
 C        -2.473259         1.005130         0.968122
 C        -1.245608         1.931005         0.915911
 C        -1.105594         2.525213         2.297807
 O        -1.950001         1.765744         3.148785
 C        -2.139945         0.500645         2.470656
 C        -0.752549        -0.204953         2.106428
 H         1.227776         0.762594         0.438614
 H        -1.898172         0.230200        -1.033432
 H        -2.092573        -1.092695         0.273991
 H        -3.461282         1.528877         0.952258
 H        -1.172404         2.704741         0.118209
 H        -0.058510         2.555382         2.666052
 H        -1.507050         3.614460         2.289202
 H        -2.979883        -0.043148         2.942292
 H         0.025564         0.185698         2.843872
 H        -0.836273        -1.274311         2.189214
