19
Iteration:  3310
 O         0.720190         0.211008         0.086031
 C        -0.526843         0.414936         0.729331
 C        -1.792620        -0.035557         0.005266
 C        -2.571669         0.890796         1.102083
 C        -1.274692         1.789484         0.931755
 C        -1.193944         2.621852         2.170260
 O        -1.781666         1.774643         3.136372
 C        -2.186878         0.492593         2.481734
 C        -0.837011        -0.151163         2.085071
 H         1.255151        -0.269732         0.768401
 H        -1.902748         0.595923        -0.936851
 H        -1.960755        -1.114747        -0.208509
 H        -3.480145         1.495429         0.975723
 H        -1.369246         2.328180         0.109128
 H        -0.229106         2.974325         2.529567
 H        -1.748403         3.644178         2.124618
 H        -2.864174         0.008584         3.158952
 H         0.041818         0.080578         2.801613
 H        -1.045872        -1.282192         2.060487
