19
Iteration:  3130charge 0 multiplicity 1
 O         0.718071         0.393638         0.169696
 C        -0.566205         0.394039         0.738226
 C        -1.967259        -0.129861        -0.062843
 C        -2.567176         0.891139         1.005702
 C        -1.237725         1.791964         0.916357
 C        -1.064196         2.567392         2.198167
 O        -1.873535         1.842412         3.202460
 C        -2.164846         0.527766         2.446345
 C        -0.745237        -0.286202         2.099122
 H         1.290088        -0.091649         0.672815
 H        -1.829190         0.398410        -1.043050
 H        -2.342094        -1.223261        -0.021734
 H        -3.482159         1.423457         0.681198
 H        -1.313828         2.381379        -0.061440
 H         0.036202         2.605570         2.523991
 H        -1.401957         3.598941         2.278176
 H        -2.966508         0.054661         3.094977
 H         0.167572        -0.052163         2.707449
 H        -0.815901        -1.431425         2.132967
