19
Iteration:  1723
 O         0.769872         0.198534         0.142579
 C        -0.591366         0.470332         0.781758
 C        -1.878213        -0.015071        -0.031387
 C        -2.576946         0.923515         1.000035
 C        -1.301272         1.841763         0.919410
 C        -1.013491         2.476385         2.225319
 O        -1.851133         1.678823         3.132711
 C        -2.196425         0.582443         2.480019
 C        -0.825867        -0.166327         2.110934
 H         1.185810         1.067598         0.114023
 H        -2.130429         0.579814        -1.039406
 H        -2.077616        -1.111004        -0.153365
 H        -3.581671         1.189316         1.044376
 H        -1.291971         2.504153         0.060965
 H         0.127466         2.462753         2.471869
 H        -1.281959         3.495067         2.365448
 H        -2.917533         0.015439         2.968272
 H        -0.012659         0.095571         2.849129
 H        -1.009795        -1.192794         2.093651
