19
Iteration:  3251
 O         0.674291         0.350293         0.057560
 C        -0.567452         0.446647         0.704282
 C        -1.847812        -0.100176         0.033762
 C        -2.517708         0.868559         0.942451
 C        -1.199523         1.828372         0.821360
 C        -1.035296         2.518766         2.216819
 O        -1.875577         1.803664         3.217195
 C        -2.233201         0.463512         2.498402
 C        -0.871383        -0.190922         2.196910
 H         1.513725         0.353602         0.690456
 H        -2.074072         0.171581        -0.998417
 H        -2.040173        -1.242636         0.170795
 H        -3.494704         1.355269         0.765907
 H        -1.116838         2.593215        -0.085398
 H         0.074875         2.333430         2.484160
 H        -1.268396         3.541606         2.181730
 H        -3.043159        -0.051693         3.099507
 H        -0.161132         0.248616         2.934499
 H        -0.800425        -1.271653         2.399353
