19
Iteration:  1231
 O         0.697217         0.225184         0.114076
 C        -0.499940         0.398039         0.705608
 C        -1.960748         0.054080        -0.033986
 C        -2.536458         0.994731         1.016276
 C        -1.197892         1.852486         0.938449
 C        -1.043160         2.577668         2.304527
 O        -1.920212         1.664252         3.137872
 C        -2.140438         0.479774         2.420813
 C        -0.828117        -0.192491         2.139109
 H         1.431936         0.133448         0.695302
 H        -1.997880         0.394452        -1.181209
 H        -2.270639        -0.997315        -0.030022
 H        -3.477590         1.536082         0.877489
 H        -1.155487         2.438079         0.007594
 H         0.012110         2.584171         2.678621
 H        -1.514032         3.638302         2.199520
 H        -2.893209        -0.097906         3.057557
 H         0.031118        -0.082196         2.898130
 H        -1.013979        -1.243625         1.886397
