19
Iteration:  1264
 O         0.646517         0.178554         0.210129
 C        -0.579602         0.435129         0.701220
 C        -1.828993         0.046060        -0.122010
 C        -2.531671         0.940802         1.007448
 C        -1.275013         1.914072         0.884823
 C        -1.071258         2.620462         2.229165
 O        -1.772448         1.637187         3.235444
 C        -2.177137         0.474034         2.452335
 C        -0.867003        -0.154059         2.079657
 H         1.433684        -0.077658         0.874869
 H        -1.915921         0.462512        -1.205693
 H        -1.902327        -1.028834        -0.148476
 H        -3.514916         1.448350         0.910348
 H        -1.446976         2.544774        -0.006899
 H        -0.006966         2.730423         2.488225
 H        -1.533488         3.676486         2.415293
 H        -2.941435        -0.183254         2.970670
 H        -0.091826        -0.195680         2.899151
 H        -0.991509        -1.240976         1.894639
