19
Iteration:  3276charge 0 multiplicity 1
 O         0.684215         0.314598         0.209181
 C        -0.578100         0.409537         0.753868
 C        -1.930579        -0.104973         0.093575
 C        -2.565616         0.976547         0.978859
 C        -1.298189         1.826681         0.831104
 C        -1.113832         2.556464         2.220686
 O        -1.816119         1.722619         3.100257
 C        -2.119039         0.502125         2.410908
 C        -0.734316        -0.163775         2.087371
 H         1.462872         0.125690         0.907403
 H        -1.907116         0.328497        -0.939554
 H        -2.385183        -1.156733         0.080769
 H        -3.539109         1.429665         0.903387
 H        -1.122758         2.401520         0.051478
 H        -0.034713         2.491780         2.365597
 H        -1.495770         3.621820         2.227519
 H        -2.809160        -0.085617         2.957218
 H         0.099919         0.000228         2.882425
 H        -0.978699        -1.272562         2.104060
