19
Iteration:  2690charge 0 multiplicity 1
 O         0.686509         0.403898         0.154321
 C        -0.583791         0.380828         0.711184
 C        -1.947552        -0.148853        -0.019668
 C        -2.547990         0.971754         0.989491
 C        -1.257497         1.830518         0.818510
 C        -1.033887         2.491541         2.231374
 O        -1.908254         1.720641         3.176427
 C        -2.115487         0.550751         2.480696
 C        -0.734145        -0.114244         2.176379
 H         0.915882        -0.517051         0.112758
 H        -1.898660         0.127472        -1.076524
 H        -2.130873        -1.231120         0.204107
 H        -3.604851         1.256967         0.919476
 H        -1.128853         2.362463        -0.144733
 H        -0.009973         2.396232         2.551480
 H        -1.391310         3.558714         2.406759
 H        -2.897653         0.037299         2.925376
 H        -0.022984         0.251625         2.892859
 H        -0.536220        -1.264038         2.272337
