19
Iteration:  3666charge 0 multiplicity 1
 O         0.661016         0.185001         0.168773
 C        -0.607845         0.462301         0.707406
 C        -1.821070        -0.139990        -0.001809
 C        -2.558091         0.974134         1.023622
 C        -1.249121         1.843582         0.882935
 C        -1.011010         2.491471         2.251590
 O        -1.902557         1.775442         3.159209
 C        -2.193642         0.503861         2.441996
 C        -0.766294        -0.127754         2.116692
 H         1.053694         0.984800         0.006637
 H        -1.991616         0.125487        -1.047765
 H        -1.971101        -1.229955         0.085125
 H        -3.551053         1.395933         0.836250
 H        -1.273334         2.628150         0.008693
 H         0.011416         2.455048         2.567478
 H        -1.366376         3.562385         2.297913
 H        -2.844211        -0.085507         3.062513
 H        -0.082249         0.455814         2.754407
 H        -0.534619        -1.248739         2.125840
