19
Iteration:  2286
 O         0.664264         0.317748         0.055642
 C        -0.591993         0.356628         0.692521
 C        -1.901575        -0.082404         0.084324
 C        -2.543094         0.996546         1.015352
 C        -1.203796         1.785457         0.925572
 C        -1.048792         2.485318         2.231412
 O        -1.912381         1.755751         3.153789
 C        -2.141357         0.523450         2.408454
 C        -0.769626        -0.148664         2.128504
 H         1.391102         0.456393         0.779646
 H        -1.936044         0.025112        -0.944340
 H        -2.016401        -1.122218         0.301060
 H        -3.631584         1.434383         0.913916
 H        -1.022782         2.569814         0.055231
 H        -0.013025         2.616616         2.498405
 H        -1.502333         3.529761         2.227079
 H        -2.904458        -0.149583         2.878563
 H        -0.048081         0.244958         2.804068
 H        -0.842961        -1.268769         2.306118
