19
Iteration:  2152
 O         0.752808         0.368294         0.020677
 C        -0.595820         0.364343         0.720369
 C        -1.921066        -0.074343         0.017675
 C        -2.577069         0.980412         1.078076
 C        -1.198176         1.755441         0.923088
 C        -1.079828         2.520536         2.207726
 O        -1.879731         1.831664         3.167047
 C        -2.215706         0.563112         2.469536
 C        -0.747668        -0.289258         2.151617
 H         1.420146         0.059128         0.708688
 H        -1.975995         0.243655        -1.056455
 H        -2.217645        -1.119597        -0.000631
 H        -3.539483         1.367571         0.873804
 H        -1.123053         2.344478         0.062588
 H        -0.096320         2.672461         2.590248
 H        -1.484698         3.514535         1.947363
 H        -2.919813        -0.084765         2.997261
 H        -0.062325        -0.116506         2.998465
 H        -0.841278        -1.406838         2.066491
