19
Iteration:  4217charge 0 multiplicity 1
 O         0.644557         0.314170         0.198412
 C        -0.623490         0.438624         0.774218
 C        -1.818252        -0.023675        -0.025328
 C        -2.524628         0.947995         0.915087
 C        -1.243103         1.844683         0.934145
 C        -0.981502         2.408160         2.304085
 O        -1.885428         1.716478         3.136530
 C        -2.188065         0.562619         2.440231
 C        -0.801523        -0.190647         2.149550
 H         0.661081         1.013910        -0.572032
 H        -1.895032         0.350455        -1.136621
 H        -2.110336        -1.089412        -0.068030
 H        -3.569389         1.295058         0.627344
 H        -1.059870         2.451276         0.111413
 H         0.039643         2.078630         2.648392
 H        -1.063798         3.508435         2.268433
 H        -2.913502        -0.052510         3.046934
 H        -0.006457        -0.117574         2.844308
 H        -0.958326        -1.272751         1.987600
