19
Iteration:  3253
 O         0.688293         0.352252         0.063870
 C        -0.572741         0.446173         0.717007
 C        -1.852089        -0.085893         0.036945
 C        -2.525657         0.874817         0.939187
 C        -1.194903         1.835679         0.811177
 C        -1.021348         2.512253         2.198935
 O        -1.870843         1.794993         3.213294
 C        -2.236521         0.452572         2.498904
 C        -0.877488        -0.194362         2.186031
 H         1.390512         0.340170         0.697436
 H        -2.136636         0.127099        -1.001593
 H        -1.983699        -1.230262         0.223182
 H        -3.471082         1.370924         0.824975
 H        -1.174980         2.505470         0.029963
 H         0.036582         2.358418         2.527521
 H        -1.330150         3.568768         2.168436
 H        -3.024884        -0.002544         3.085631
 H        -0.168568         0.317025         2.951860
 H        -0.745022        -1.294380         2.404406
