19
Iteration:  4227charge 0 multiplicity 1
 O         0.735730         0.301184         0.190501
 C        -0.577195         0.387213         0.720404
 C        -1.831422        -0.036202        -0.005762
 C        -2.618132         0.980736         0.952526
 C        -1.262891         1.816197         0.916970
 C        -0.970479         2.419227         2.303455
 O        -1.926666         1.756359         3.220638
 C        -2.183977         0.559362         2.367657
 C        -0.797545        -0.220603         2.107252
 H         0.666328         0.765164        -0.702326
 H        -1.961907         0.499969        -1.084665
 H        -2.005373        -1.129825         0.058582
 H        -3.650826         1.449023         0.910171
 H        -0.975754         2.493222         0.215823
 H         0.113606         2.339731         2.672945
 H        -1.220204         3.609273         2.364314
 H        -3.014049        -0.032477         2.880006
 H         0.001466         0.017869         2.779659
 H        -0.894097        -1.298288         1.996726
