19
Iteration:  1551charge 0 multiplicity 1
 O         0.669450         0.136806         0.159309
 C        -0.546254         0.466367         0.726035
 C        -1.912114         0.094953        -0.047983
 C        -2.574971         1.028662         1.023054
 C        -1.182878         1.904065         0.925270
 C        -1.067602         2.594421         2.199649
 O        -1.882937         1.617900         3.165220
 C        -2.162252         0.408341         2.445637
 C        -0.781267        -0.183760         2.088033
 H         1.419142         0.361055         0.879381
 H        -1.828978         0.494014        -1.047146
 H        -2.086885        -0.958484        -0.089879
 H        -3.556686         1.402454         0.922159
 H        -1.409143         2.537202         0.073926
 H        -0.095733         2.679978         2.643916
 H        -1.613398         3.584522         2.355935
 H        -2.826894        -0.139131         3.081600
 H         0.075033        -0.017223         2.827826
 H        -0.829725        -1.274928         1.851762
