19
Iteration:  2222
 O         0.749973         0.117514         0.110607
 C        -0.552946         0.387834         0.618404
 C        -1.976119         0.007564        -0.007828
 C        -2.555587         0.960924         1.061892
 C        -1.245568         1.875192         0.890171
 C        -1.140440         2.535869         2.210709
 O        -1.937437         1.763916         3.200014
 C        -2.064263         0.486231         2.439291
 C        -0.710249        -0.162872         2.143969
 H         1.331140         0.615002         0.891996
 H        -2.077904         0.434589        -0.955140
 H        -2.221518        -0.997321        -0.183502
 H        -3.555732         1.535633         1.252862
 H        -1.167322         2.631937        -0.002318
 H        -0.156050         2.787015         2.601179
 H        -1.673494         3.585933         2.068347
 H        -2.821624        -0.010053         3.069443
 H         0.076481        -0.025057         2.893498
 H        -0.687817        -1.250738         2.120638
