19
Iteration:  3642charge 0 multiplicity 1
 O         0.706364         0.262617         0.063947
 C        -0.507059         0.371889         0.782358
 C        -1.947865        -0.038887         0.077399
 C        -2.485506         0.972760         1.029286
 C        -1.249426         1.811159         0.853021
 C        -1.064169         2.567516         2.194088
 O        -1.986235         1.773452         3.101181
 C        -2.117595         0.511554         2.471360
 C        -0.757282        -0.227721         2.148349
 H         1.393674         0.803113         0.644911
 H        -2.129023         0.342995        -0.919841
 H        -2.247046        -1.163213         0.028231
 H        -3.479554         1.285913         0.985047
 H        -1.169835         2.446165        -0.134464
 H        -0.004572         2.473188         2.488488
 H        -1.404246         3.581906         2.331500
 H        -2.663819        -0.101591         3.164990
 H        -0.073764        -0.001268         2.959601
 H        -1.094314        -1.355506         2.143720
