19
Iteration:  1781charge 0 multiplicity 1
 O         0.711800         0.265849        -0.011799
 C        -0.545240         0.435716         0.780543
 C        -1.854275        -0.057658         0.002666
 C        -2.500185         0.978648         0.966040
 C        -1.242959         1.875808         0.926317
 C        -1.140113         2.562110         2.260246
 O        -1.799549         1.748181         3.219216
 C        -2.202908         0.492306         2.387216
 C        -0.875577        -0.227494         2.189705
 H         1.376224        -0.281842         0.539616
 H        -1.947826         0.390170        -1.124941
 H        -2.122528        -1.148563         0.181842
 H        -3.569835         1.293254         0.829217
 H        -1.258178         2.528323         0.022171
 H        -0.004957         2.528291         2.561253
 H        -1.639465         3.505381         2.299725
 H        -2.962336        -0.059757         3.065860
 H        -0.246746         0.171203         2.946856
 H        -0.777730        -1.351280         2.213202
