19
Iteration:  3515charge 0 multiplicity 1
 O         0.637972         0.407550         0.147665
 C        -0.589651         0.367817         0.770575
 C        -1.854489        -0.172283         0.109229
 C        -2.528718         0.929644         1.002892
 C        -1.205408         1.825999         0.797451
 C        -0.973970         2.464082         2.198611
 O        -1.969974         1.740922         3.177157
 C        -2.162250         0.592607         2.394660
 C        -0.756597        -0.125511         2.133629
 H         1.144254        -0.406382         0.100529
 H        -2.076407         0.153314        -0.920499
 H        -2.114924        -1.157196         0.415866
 H        -3.575980         1.298614         0.792755
 H        -1.017083         2.550497        -0.089716
 H         0.054031         2.501558         2.671363
 H        -1.368618         3.530574         2.122022
 H        -2.971188         0.040139         2.847972
 H        -0.040309         0.202724         2.875146
 H        -0.767798        -1.162573         2.115132
