19
Iteration:  1841
 O         0.765150         0.336911         0.133778
 C        -0.590195         0.339941         0.727732
 C        -1.928179        -0.018436         0.008792
 C        -2.579258         0.994411         1.013775
 C        -1.198766         1.796059         0.872441
 C        -1.072068         2.494328         2.252717
 O        -1.917464         1.734510         3.196174
 C        -2.160060         0.560404         2.462142
 C        -0.774316        -0.190578         2.111039
 H         1.001971        -0.505075        -0.067583
 H        -1.857179         0.443243        -0.901318
 H        -2.221312        -1.072392        -0.023238
 H        -3.523596         1.440649         0.748445
 H        -1.244840         2.308686        -0.085974
 H        -0.030045         2.577869         2.640590
 H        -1.493631         3.621890         2.140084
 H        -2.736289        -0.110619         3.069587
 H         0.111396         0.259674         2.703789
 H        -0.831076        -1.307042         2.129149
