19
Iteration:  3614
 O         0.649896         0.270479         0.070782
 C        -0.543189         0.422137         0.782910
 C        -1.821399        -0.053995         0.014578
 C        -2.581469         0.922510         0.931662
 C        -1.257015         1.759942         0.951816
 C        -1.131247         2.555396         2.213484
 O        -1.790470         1.775720         3.169087
 C        -2.195295         0.563808         2.458613
 C        -0.780025        -0.175610         2.127391
 H         1.216568        -0.251972         0.691223
 H        -1.775029         0.234156        -1.069568
 H        -1.917205        -1.089036         0.116697
 H        -3.691637         1.183760         0.778820
 H        -1.091001         2.414681         0.099060
 H        -0.115537         2.961754         2.482800
 H        -1.776984         3.511934         2.068163
 H        -2.814016         0.014838         3.213239
 H        -0.013280         0.077599         2.894181
 H        -0.951830        -1.215657         2.129717
