19
Iteration:  4352
 O         0.759510         0.363720         0.237492
 C        -0.601716         0.462623         0.749122
 C        -1.895423        -0.005786        -0.011204
 C        -2.542997         0.959848         0.989613
 C        -1.268975         1.803532         0.894105
 C        -0.928445         2.388059         2.239257
 O        -1.893034         1.697621         3.192660
 C        -2.239333         0.493092         2.449274
 C        -0.854975        -0.139759         2.052272
 H         0.729183         0.655445        -0.709239
 H        -1.858439         0.419316        -1.027821
 H        -2.158699        -1.137841         0.040954
 H        -3.480944         1.373164         0.711863
 H        -1.148390         2.346356        -0.126466
 H         0.219808         2.200366         2.478870
 H        -1.127502         3.469918         2.404299
 H        -2.728705        -0.212029         3.067482
 H        -0.123780         0.112140         2.907211
 H        -1.099567        -1.236924         2.043052
