19
Iteration:  2166
 O         0.650046         0.353496         0.010546
 C        -0.501077         0.375512         0.794466
 C        -1.844020        -0.058042         0.086184
 C        -2.492699         0.935376         0.981998
 C        -1.275689         1.821628         0.883412
 C        -1.099099         2.596745         2.178590
 O        -1.838047         1.730786         3.138938
 C        -2.145420         0.527213         2.489090
 C        -0.885446        -0.295351         2.185773
 H         1.444507         0.094455         0.596756
 H        -1.855131         0.375848        -0.846255
 H        -2.113692        -1.040868         0.065378
 H        -3.471432         1.511500         0.812277
 H        -1.153524         2.351058        -0.135126
 H        -0.060829         2.639798         2.465071
 H        -1.574358         3.668356         2.367737
 H        -2.922593         0.166615         3.186323
 H        -0.129469        -0.087599         2.877603
 H        -1.129299        -1.355983         2.030588
