19
Iteration:  3692
 O         0.759916         0.210505         0.188957
 C        -0.562899         0.406855         0.766565
 C        -1.870215        -0.072724        -0.012554
 C        -2.588970         0.987008         0.977079
 C        -1.296406         1.850126         0.849325
 C        -1.116107         2.517697         2.243787
 O        -1.861554         1.764851         3.182216
 C        -2.116244         0.568998         2.428107
 C        -0.754668        -0.209802         2.179394
 H         0.634469         0.403219        -0.691115
 H        -1.898864         0.295402        -1.059660
 H        -2.248915        -1.050475        -0.044471
 H        -3.669471         1.274637         0.818726
 H        -1.203777         2.525184         0.087608
 H        -0.060607         2.532542         2.529418
 H        -1.515524         3.547056         2.294628
 H        -2.839180        -0.069959         3.004889
 H         0.043653         0.114590         2.857374
 H        -0.838978        -1.248724         2.103631
