19
Iteration:  2367charge 0 multiplicity 1
 O         0.625031         0.286647         0.041342
 C        -0.507288         0.345997         0.806949
 C        -1.935634        -0.127541         0.088325
 C        -2.513720         1.067990         1.030630
 C        -1.190517         1.810073         0.872730
 C        -1.185151         2.628802         2.217690
 O        -1.873893         1.721669         3.107383
 C        -2.101262         0.518241         2.402030
 C        -0.712559        -0.268590         2.125746
 H         1.370475         0.388239         0.695686
 H        -1.937790         0.152889        -1.028486
 H        -2.309983        -1.093805         0.384125
 H        -3.425602         1.591740         1.026561
 H        -0.926933         2.484283         0.101193
 H        -0.269591         2.969657         2.658989
 H        -1.944261         3.496530         2.276974
 H        -2.891940         0.004484         2.919978
 H        -0.090732         0.010262         3.083698
 H        -0.733067        -1.331906         1.973968
