19
Iteration:  3179charge 0 multiplicity 1
 O         0.652511         0.104697         0.068462
 C        -0.597408         0.383018         0.757826
 C        -1.771043        -0.045958        -0.023819
 C        -2.544849         1.074801         0.941680
 C        -1.283486         1.891179         0.947609
 C        -1.232444         2.606475         2.248448
 O        -1.819406         1.735313         3.209148
 C        -2.122621         0.467692         2.437762
 C        -0.748510        -0.176597         2.109103
 H         1.382604         0.451410         0.782268
 H        -1.883165         0.188774        -1.079086
 H        -2.068952        -1.011229         0.245050
 H        -3.563842         1.191559         0.605017
 H        -0.978018         2.437167         0.058014
 H        -0.219834         2.821051         2.518114
 H        -1.872769         3.603617         2.300828
 H        -2.832081        -0.073762         3.001246
 H        -0.074229         0.290505         2.883558
 H        -0.512397        -1.243863         2.227189
