19
Iteration:  4438
 O         0.645438         0.091391         0.132069
 C        -0.559450         0.416260         0.733320
 C        -1.792977         0.047093        -0.007463
 C        -2.516888         1.032819         0.978062
 C        -1.255864         1.928583         0.976829
 C        -1.237143         2.578087         2.345323
 O        -1.848100         1.693856         3.221497
 C        -2.155234         0.521711         2.368579
 C        -0.715833        -0.288787         2.063506
 H         1.030094         0.573015        -0.691720
 H        -1.594591         0.535994        -0.955791
 H        -1.925917        -1.082971         0.062568
 H        -3.479023         1.501702         0.818530
 H        -1.114055         2.439379         0.040177
 H        -0.259370         2.924051         2.597563
 H        -1.788232         3.643915         2.389525
 H        -2.920947        -0.008820         2.862387
 H         0.072640        -0.065804         2.810346
 H        -0.873608        -1.354868         1.931700
