19
Iteration:  1793
 O         0.631696         0.224460         0.055646
 C        -0.559583         0.424206         0.743110
 C        -1.797466        -0.007495         0.032803
 C        -2.513603         0.958611         0.977937
 C        -1.301011         1.863936         0.936836
 C        -1.146730         2.574608         2.266545
 O        -1.844079         1.695092         3.211035
 C        -2.152861         0.541867         2.424201
 C        -0.760150        -0.174492         2.137317
 H         1.156264        -0.615462         0.430910
 H        -1.781830         0.281243        -1.115952
 H        -1.973004        -1.140562         0.007151
 H        -3.523306         1.448574         0.755980
 H        -1.008263         2.487215         0.069899
 H        -0.019556         2.850658         2.483690
 H        -1.558832         3.601544         2.207591
 H        -3.101843        -0.013183         2.835511
 H        -0.049307         0.043159         2.875758
 H        -0.862704        -1.319774         1.971885
