19
Iteration:  3943charge 0 multiplicity 1
 O         0.734568         0.257077         0.170381
 C        -0.602805         0.321042         0.654949
 C        -1.945959        -0.008645        -0.065984
 C        -2.500083         1.017164         1.022358
 C        -1.151666         1.854816         0.928724
 C        -0.987935         2.514326         2.332649
 O        -2.011844         1.713026         3.114387
 C        -2.100942         0.471634         2.400735
 C        -0.794005        -0.168228         2.185047
 H         0.676109         0.873156        -0.497512
 H        -2.077439         0.263439        -1.101387
 H        -2.297198        -0.946912        -0.055578
 H        -3.444245         1.542432         1.135568
 H        -1.178374         2.464342         0.126746
 H         0.017690         2.314557         2.633418
 H        -1.361328         3.565795         2.546275
 H        -2.912668        -0.032234         2.954928
 H         0.003146         0.180479         2.911916
 H        -0.881643        -1.269480         2.299129
