19
Iteration:  3102charge 0 multiplicity 1
 O         0.718757         0.400032         0.199019
 C        -0.596459         0.471496         0.754855
 C        -1.891722        -0.087033         0.097998
 C        -2.575833         0.956184         1.033929
 C        -1.259649         1.865645         0.856453
 C        -1.025391         2.423497         2.130618
 O        -1.861154         1.718661         3.086644
 C        -2.207660         0.459768         2.456763
 C        -0.780302        -0.156417         2.133816
 H         1.027153        -0.453929         0.224425
 H        -1.819569         0.150209        -0.930168
 H        -2.165929        -1.098988         0.282671
 H        -3.520194         1.426116         0.733795
 H        -1.136061         2.505474        -0.043344
 H         0.031781         2.350635         2.319751
 H        -1.251876         3.506875         2.396526
 H        -3.002337        -0.060484         3.002896
 H         0.033712         0.323205         2.736418
 H        -0.771453        -1.230329         2.145377
