19
Iteration:  2580
 O         0.659375         0.249028         0.015846
 C        -0.579627         0.412235         0.712575
 C        -1.843456        -0.119922         0.015423
 C        -2.558574         0.939426         1.000195
 C        -1.184165         1.836427         0.928459
 C        -1.123725         2.595414         2.297183
 O        -1.887949         1.780496         3.182708
 C        -2.186276         0.512943         2.449550
 C        -0.726927        -0.215360         2.128189
 H         1.385365         0.807261         0.558917
 H        -1.964311         0.265155        -1.013145
 H        -1.999762        -1.295308         0.158537
 H        -3.609996         1.359406         0.757754
 H        -1.015306         2.428100         0.000513
 H        -0.061528         2.713686         2.610740
 H        -1.597985         3.597341         2.238837
 H        -2.862287        -0.078801         2.983766
 H        -0.221632         0.091893         3.050933
 H        -0.859354        -1.388451         2.104140
