19
Iteration:  1225charge 0 multiplicity 1
 O         0.693085         0.251501         0.059517
 C        -0.525079         0.431054         0.721099
 C        -1.932546        -0.029337        -0.068859
 C        -2.474213         1.030556         1.068522
 C        -1.170736         1.841291         0.922198
 C        -1.003631         2.571040         2.276870
 O        -1.959175         1.672768         3.181927
 C        -2.173617         0.455339         2.410722
 C        -0.859448        -0.193578         2.158755
 H         1.402251         0.194601         0.686802
 H        -2.058741         0.459378        -1.020376
 H        -2.319586        -1.063154        -0.082840
 H        -3.465602         1.542695         0.989774
 H        -0.966130         2.428540        -0.024164
 H        -0.021254         2.646781         2.802680
 H        -1.476130         3.497572         2.132985
 H        -2.949964        -0.053273         2.930342
 H        -0.148222         0.052910         2.910976
 H        -0.964354        -1.265278         1.947664
