19
Iteration:   847
 O         0.694778         0.170438         0.081537
 C        -0.614359         0.390983         0.678824
 C        -1.828581         0.048607        -0.110141
 C        -2.439212         1.056877         1.018408
 C        -1.203733         1.861730         0.939740
 C        -1.086172         2.494157         2.257194
 O        -1.908514         1.676076         3.247374
 C        -2.166923         0.522796         2.442356
 C        -0.869942        -0.168694         2.135153
 H         1.399254         0.204468         0.639011
 H        -2.072880         0.380553        -1.051829
 H        -2.174478        -1.009203        -0.033687
 H        -3.493899         1.519815         0.886612
 H        -1.070013         2.446512        -0.014956
 H        -0.092950         2.572770         2.577897
 H        -1.383841         3.628770         2.341939
 H        -2.971971        -0.065326         2.962311
 H        -0.084143         0.050650         2.844933
 H        -1.023853        -1.246687         2.255778
