19
Iteration:  1287
 O         0.718219         0.267023         0.132906
 C        -0.551742         0.358802         0.720329
 C        -1.886832         0.030391         0.027570
 C        -2.565427         1.056537         0.997028
 C        -1.252175         1.867848         0.924093
 C        -1.109503         2.531808         2.251958
 O        -1.800194         1.694533         3.172962
 C        -2.181982         0.509636         2.411160
 C        -0.859928        -0.303222         2.090775
 H         1.423849         0.172316         0.707620
 H        -1.908218         0.534167        -1.068060
 H        -2.139891        -1.007909        -0.098690
 H        -3.632142         1.436716         0.894724
 H        -0.831447         2.498186         0.084469
 H        -0.063021         2.797777         2.552030
 H        -1.620534         3.560329         2.106723
 H        -3.038426         0.010665         2.922460
 H        -0.115197        -0.130465         2.935245
 H        -0.767919        -1.372671         2.005858
