19
Iteration:  1366
 O         0.614585         0.121206         0.131040
 C        -0.603762         0.439663         0.708471
 C        -1.849068         0.046492        -0.034500
 C        -2.570680         0.974752         1.033493
 C        -1.158844         1.912730         0.971505
 C        -1.099853         2.576360         2.330343
 O        -1.946893         1.667341         3.145706
 C        -2.133750         0.505630         2.367295
 C        -0.714719        -0.176935         2.065533
 H         1.314233         0.429583         0.616074
 H        -1.752531         0.487089        -1.084408
 H        -2.088721        -1.043195         0.024899
 H        -3.534558         1.470715         0.998718
 H        -1.008787         2.419301        -0.015083
 H        -0.084580         2.385072         2.796855
 H        -1.372672         3.587713         2.332719
 H        -2.790393        -0.130763         2.908356
 H         0.080086         0.188634         2.683653
 H        -0.781079        -1.252459         2.013738
