19
Iteration:  3948charge 0 multiplicity 1
 O         0.707616         0.248477         0.194688
 C        -0.582421         0.366285         0.688806
 C        -1.965017        -0.005515        -0.071147
 C        -2.445779         1.019438         1.066960
 C        -1.138237         1.876066         0.936569
 C        -1.030671         2.521115         2.311724
 O        -2.006458         1.712021         3.082033
 C        -2.080183         0.453762         2.380596
 C        -0.831504        -0.195987         2.202791
 H         0.657128         0.753997        -0.750861
 H        -2.022786         0.426908        -1.107047
 H        -2.373639        -1.138557        -0.134934
 H        -3.482089         1.413470         1.228851
 H        -1.191837         2.548841        -0.067834
 H         0.025590         2.321812         2.681888
 H        -1.224584         3.569124         2.557197
 H        -2.833600        -0.054808         2.976041
 H        -0.057060         0.165033         2.836107
 H        -0.724966        -1.291665         2.172858
