19
Iteration:  3927
 O         0.722154         0.240433         0.115639
 C        -0.541582         0.425789         0.739023
 C        -1.918010        -0.022046         0.025070
 C        -2.538437         1.033839         0.932727
 C        -1.215604         1.776538         0.944896
 C        -1.048417         2.399839         2.317679
 O        -1.930390         1.750783         3.218665
 C        -2.232024         0.574503         2.415935
 C        -0.776823        -0.194633         2.081685
 H         1.021227         1.032828        -0.255372
 H        -1.865740         0.355834        -1.034750
 H        -2.269984        -1.200076         0.087537
 H        -3.528526         1.388220         0.567596
 H        -0.951125         2.486958         0.024293
 H        -0.009321         2.404444         2.828270
 H        -1.203274         3.457588         2.211845
 H        -2.877932        -0.080065         3.009471
 H         0.034071         0.182495         2.696094
 H        -0.666979        -1.309127         2.049646
