19
Iteration:  3332charge 0 multiplicity 1
 O         0.637017         0.232681         0.047906
 C        -0.546769         0.406373         0.768188
 C        -1.836977        -0.051190         0.024624
 C        -2.529688         1.001597         0.958029
 C        -1.249266         1.866322         0.838758
 C        -1.171247         2.620523         2.174319
 O        -1.855612         1.709353         3.189252
 C        -2.127558         0.505091         2.471322
 C        -0.717046        -0.234185         2.225982
 H         1.318412        -0.132829         0.690169
 H        -1.847764         0.216461        -1.086357
 H        -2.232762        -1.063792         0.236547
 H        -3.602010         1.281736         0.886303
 H        -1.034631         2.470564         0.080607
 H        -0.193823         2.982162         2.523197
 H        -1.801260         3.575098         2.112798
 H        -2.976026         0.024905         2.948629
 H         0.068306         0.047672         3.025996
 H        -0.951990        -1.340502         2.258642
