19
Iteration:  3161charge 0 multiplicity 1
 O         0.621856         0.206711         0.097954
 C        -0.520875         0.494428         0.763711
 C        -1.861199        -0.039867         0.043444
 C        -2.507825         0.897511         1.020003
 C        -1.224644         1.879490         0.865985
 C        -1.179892         2.634751         2.208100
 O        -1.835962         1.679641         3.150511
 C        -2.120096         0.533472         2.382201
 C        -0.794811        -0.218191         2.202621
 H         1.476929         0.051425         0.711414
 H        -1.706686         0.342717        -0.995966
 H        -2.091887        -1.110480        -0.104509
 H        -3.464266         1.414311         0.840618
 H        -1.357055         2.594329        -0.142070
 H        -0.150842         2.806654         2.678012
 H        -1.801042         3.460693         2.253398
 H        -2.878639        -0.000328         2.979505
 H         0.012568        -0.129898         2.879124
 H        -0.996963        -1.283222         2.101486
