19
Iteration:  2855
 O         0.546262         0.249478         0.057414
 C        -0.583030         0.456905         0.803251
 C        -1.784028        -0.107236         0.059605
 C        -2.481022         0.980889         0.919506
 C        -1.217020         1.881203         0.909243
 C        -1.112405         2.578521         2.272930
 O        -1.826441         1.732839         3.149139
 C        -2.143069         0.447716         2.386098
 C        -0.819016        -0.204149         2.200373
 H         1.350843         0.733312         0.329441
 H        -1.766000         0.108790        -1.054436
 H        -2.070646        -1.142704         0.326926
 H        -3.474379         1.311015         0.747309
 H        -1.147207         2.554901         0.006374
 H        -0.128267         2.618974         2.661507
 H        -1.593524         3.666600         2.170553
 H        -2.944197        -0.051890         2.802208
 H        -0.019881        -0.044086         2.873535
 H        -0.947003        -1.371431         2.229048
