19
Iteration:  1671
 O         0.760905         0.220158         0.133281
 C        -0.596719         0.379255         0.739888
 C        -1.915433         0.062934         0.063766
 C        -2.471582         1.047784         1.006855
 C        -1.173462         1.830090         0.918865
 C        -1.156930         2.546715         2.297364
 O        -1.931280         1.749712         3.163426
 C        -2.108740         0.450371         2.396256
 C        -0.773537        -0.240346         2.103364
 H         0.589439        -0.028494        -0.708162
 H        -2.020157         0.469826        -1.007893
 H        -2.128967        -0.988443        -0.014138
 H        -3.482744         1.397064         0.923616
 H        -1.174606         2.455086         0.015187
 H        -0.134760         2.802122         2.607742
 H        -1.659394         3.525832         2.268524
 H        -2.813392        -0.218079         2.920622
 H        -0.125034        -0.021060         2.956245
 H        -0.856611        -1.324651         1.993371
