19
Iteration:  3079charge 0 multiplicity 1
 O         0.701501         0.344018         0.125914
 C        -0.533391         0.424859         0.708036
 C        -1.862313        -0.106262         0.030992
 C        -2.547754         0.892097         0.984048
 C        -1.300268         1.832999         0.874888
 C        -1.053858         2.550512         2.269350
 O        -1.913627         1.775414         3.157871
 C        -2.105997         0.544237         2.406183
 C        -0.795213        -0.189351         2.200346
 H         0.883120        -0.546751        -0.379169
 H        -1.868910         0.181161        -0.990271
 H        -2.094866        -1.155086         0.180941
 H        -3.587284         1.272158         0.825945
 H        -1.033493         2.408650         0.041659
 H        -0.052739         2.586212         2.616226
 H        -1.440268         3.654703         2.399408
 H        -2.920747         0.022571         2.993679
 H         0.003496         0.068073         2.983950
 H        -1.003321        -1.274710         2.113654
