19
Iteration:  3752charge 0 multiplicity 1
 O         0.688132         0.246554         0.075333
 C        -0.565915         0.410971         0.769753
 C        -1.802599        -0.030986        -0.007719
 C        -2.563186         0.977024         0.951180
 C        -1.222172         1.845986         0.928446
 C        -1.105643         2.589479         2.220624
 O        -1.799012         1.691350         3.221017
 C        -2.224623         0.505497         2.430219
 C        -0.847632        -0.162226         2.117592
 H         1.256582        -0.251719         0.799138
 H        -1.943464         0.376746        -1.028820
 H        -2.209741        -1.134479         0.161057
 H        -3.572783         1.308794         0.733754
 H        -1.386947         2.355830        -0.120899
 H         0.002980         2.745212         2.558738
 H        -1.538152         3.585183         2.194543
 H        -2.926805        -0.057518         3.021282
 H        -0.070100         0.249574         2.792149
 H        -0.749132        -1.303361         2.235263
