19
Iteration:  1477charge 0 multiplicity 1
 O         0.675748         0.240392         0.041479
 C        -0.562869         0.405466         0.738145
 C        -1.849491        -0.012028        -0.087950
 C        -2.529875         1.005044         0.987052
 C        -1.293593         1.931385         0.902622
 C        -1.019023         2.511484         2.334048
 O        -1.961573         1.701308         3.189129
 C        -2.129023         0.524051         2.417201
 C        -0.777281        -0.230736         2.167487
 H         1.426446         0.126000         0.752565
 H        -1.923874         0.382141        -1.050857
 H        -2.165620        -1.103868        -0.004502
 H        -3.473825         1.461890         0.746593
 H        -1.004726         2.403441        -0.028186
 H        -0.007575         2.352600         2.771417
 H        -1.386881         3.490084         2.519738
 H        -2.873669        -0.012384         3.038824
 H        -0.028015         0.061267         2.842197
 H        -0.955921        -1.334323         2.223907
