19
Iteration:  4463charge 0 multiplicity 1
 O         0.745010         0.203075         0.198391
 C        -0.555434         0.482503         0.721676
 C        -1.917576         0.065108        -0.049152
 C        -2.523872         0.937742         1.017252
 C        -1.205024         1.904164         0.944677
 C        -1.062681         2.537565         2.277793
 O        -1.921824         1.622964         3.144209
 C        -2.161772         0.492865         2.432541
 C        -0.800606        -0.175251         2.111974
 H         0.787164         0.179716        -0.733930
 H        -1.917661         0.593211        -0.999878
 H        -2.146475        -1.040104         0.053517
 H        -3.501619         1.355648         0.899242
 H        -1.324741         2.502261        -0.022906
 H         0.026076         2.615103         2.474872
 H        -1.390803         3.545260         2.547602
 H        -2.886924        -0.139177         2.979745
 H         0.037736         0.008781         2.878745
 H        -1.022600        -1.269053         1.978966
