19
Iteration:  3197
 O         0.707323         0.083307         0.078659
 C        -0.533619         0.380717         0.696199
 C        -1.908709        -0.018206         0.002170
 C        -2.506856         0.953897         0.979174
 C        -1.221517         1.848264         0.872584
 C        -1.196510         2.581683         2.284812
 O        -1.918806         1.692324         3.206316
 C        -2.122417         0.556222         2.437515
 C        -0.726144        -0.080825         2.141522
 H         1.454115         0.686712         0.501863
 H        -1.946490         0.431108        -1.003712
 H        -2.190959        -1.142469         0.055138
 H        -3.439517         1.545327         1.044530
 H        -1.257486         2.548882         0.047206
 H        -0.211808         2.897312         2.690260
 H        -1.694525         3.520035         2.100265
 H        -2.884738        -0.131372         2.914631
 H         0.048776         0.288080         2.895836
 H        -0.800300        -1.218410         2.234489
