19
Iteration:  2942
 O         0.699550         0.380273         0.085127
 C        -0.570905         0.444739         0.697581
 C        -1.845857        -0.159433         0.027944
 C        -2.560821         0.957679         0.987403
 C        -1.277817         1.839550         0.889428
 C        -1.051904         2.524190         2.245285
 O        -1.839909         1.728870         3.177989
 C        -2.188041         0.560568         2.443179
 C        -0.842076        -0.202015         2.187037
 H         1.199348        -0.254189         0.483882
 H        -1.938869         0.192102        -1.076147
 H        -2.063272        -1.236036         0.282894
 H        -3.506217         1.385691         0.736493
 H        -1.195166         2.443783        -0.102595
 H        -0.007368         2.415887         2.641772
 H        -1.260790         3.603751         2.148115
 H        -2.928603         0.034536         2.945739
 H         0.026854        -0.013166         2.807596
 H        -0.928211        -1.384934         2.198507
