19
Iteration:   414
 O         0.707008         0.069665         0.086125
 C        -0.591935         0.403041         0.744149
 C        -1.899258         0.060559        -0.044040
 C        -2.539892         1.018811         1.016840
 C        -1.109291         1.884163         0.906534
 C        -1.067662         2.512981         2.349724
 O        -2.058031         1.700961         3.156089
 C        -2.131623         0.538596         2.441051
 C        -0.732459        -0.124266         2.053576
 H         1.498497         0.248846         0.776086
 H        -1.796110         0.583828        -1.016008
 H        -2.340003        -0.953086        -0.224685
 H        -3.491105         1.592077         0.876856
 H        -0.999715         2.553578         0.045011
 H         0.009485         2.362222         2.800849
 H        -1.437279         3.609228         2.514029
 H        -2.932978        -0.122297         2.916670
 H         0.035640        -0.030176         2.829929
 H        -0.966143        -1.199122         1.998750
