19
Iteration:   791
 O         0.751667         0.356310         0.244917
 C        -0.597119         0.404138         0.722176
 C        -1.947415        -0.007892        -0.061537
 C        -2.610842         1.024744         0.959501
 C        -1.148549         1.824114         0.906249
 C        -1.011352         2.432942         2.232023
 O        -1.814332         1.701362         3.192759
 C        -2.225906         0.525639         2.418274
 C        -0.794724        -0.213445         2.116752
 H         0.951865        -0.622464         0.015684
 H        -1.863309         0.562197        -0.919227
 H        -2.485499        -0.983963        -0.162311
 H        -3.634423         1.498704         0.748602
 H        -1.066372         2.515710         0.008917
 H        -0.052750         2.498306         2.663161
 H        -1.602261         3.462841         2.149464
 H        -2.889066         0.081157         3.131785
 H        -0.150868        -0.049486         2.962912
 H        -1.060921        -1.256021         1.893974
