19
Iteration:  4481
 O         0.758915         0.385170         0.254066
 C        -0.596695         0.355531         0.689921
 C        -1.903882        -0.005343        -0.082819
 C        -2.573116         1.064132         0.976586
 C        -1.269237         1.770077         0.886526
 C        -1.011336         2.396583         2.328099
 O        -1.912091         1.770631         3.199994
 C        -2.144151         0.469700         2.428930
 C        -0.792032        -0.238925         2.055975
 H         0.705372        -0.072996        -0.566087
 H        -1.997823         0.599743        -0.992716
 H        -2.348357        -1.048956         0.006327
 H        -3.605101         1.403738         0.889051
 H        -1.063620         2.575033         0.218834
 H         0.016516         2.357968         2.721750
 H        -1.103831         3.597298         2.260333
 H        -2.830490        -0.119569         2.975651
 H        -0.071028         0.275340         2.699241
 H        -0.660227        -1.291426         2.142291
