19
Iteration:  4430charge 0 multiplicity 1
 O         0.701733         0.077347         0.117297
 C        -0.532457         0.391597         0.741895
 C        -1.861325         0.050602        -0.034381
 C        -2.491657         1.027455         0.949360
 C        -1.195081         1.836174         0.986659
 C        -1.254260         2.702714         2.338088
 O        -1.855563         1.614543         3.213394
 C        -2.144828         0.577894         2.399101
 C        -0.741523        -0.247590         2.091742
 H         0.828736         0.856987        -0.613038
 H        -1.855296         0.464588        -1.060094
 H        -2.260463        -1.024849        -0.163157
 H        -3.478603         1.385784         0.835221
 H        -1.167020         2.680054         0.208402
 H        -0.169145         2.925415         2.559875
 H        -1.975719         3.483891         2.477124
 H        -2.902544        -0.040528         2.888614
 H         0.170332        -0.025820         2.781226
 H        -0.964474        -1.346369         2.143728
