19
Iteration:  2332
 O         0.705770         0.163862         0.101065
 C        -0.565390         0.445493         0.723546
 C        -1.759840        -0.051472        -0.021093
 C        -2.594598         0.925150         1.050972
 C        -1.383264         1.871903         0.892533
 C        -1.168345         2.581380         2.214676
 O        -1.747051         1.723564         3.188538
 C        -2.143540         0.541681         2.468158
 C        -0.813785        -0.173390         2.135419
 H         1.455190         0.184715         0.703529
 H        -1.966660         0.437879        -0.997359
 H        -2.032973        -0.986419        -0.336482
 H        -3.639840         1.383354         0.963073
 H        -1.321519         2.408495        -0.134829
 H        -0.185807         2.810467         2.485625
 H        -1.667301         3.629146         1.944286
 H        -2.783560        -0.036620         3.121246
 H        -0.157050         0.037736         3.054260
 H        -0.787060        -1.252829         2.005087
