19
Iteration:  2251
 O         0.554758         0.247311        -0.038197
 C        -0.548098         0.402104         0.739338
 C        -1.746975        -0.044389         0.060858
 C        -2.518293         0.924365         0.978728
 C        -1.244369         1.888837         0.940847
 C        -1.074928         2.537321         2.260200
 O        -1.933844         1.766967         3.142414
 C        -2.110016         0.523521         2.425833
 C        -0.805683        -0.183024         2.228141
 H         1.380462         0.250499         0.509982
 H        -1.736198         0.159294        -1.042371
 H        -1.947327        -1.153553         0.202907
 H        -3.562493         1.298575         0.995376
 H        -1.052546         2.488484         0.024122
 H         0.004348         2.521168         2.617012
 H        -1.413647         3.554430         2.230499
 H        -2.888727        -0.057759         2.994352
 H        -0.109056        -0.035838         3.027039
 H        -0.932170        -1.326524         2.169661
