19
Iteration:   172charge 0 multiplicity 1
 O         0.647051         0.250810         0.259904
 C        -0.580894         0.357308         0.758060
 C        -1.955135         0.088720        -0.047406
 C        -2.464583         1.044157         1.026972
 C        -1.076499         1.857001         0.904420
 C        -1.047835         2.497210         2.218798
 O        -1.944407         1.726415         3.080663
 C        -2.081056         0.474864         2.389485
 C        -0.860021        -0.321749         2.160542
 H         0.963929         1.163562        -0.153820
 H        -1.967705         0.458025        -1.047220
 H        -2.329531        -1.048052         0.043112
 H        -3.486251         1.453835         1.007581
 H        -0.778827         2.417335         0.003022
 H        -0.078550         2.435030         2.769225
 H        -1.373019         3.509736         2.351828
 H        -2.932531         0.021882         2.808764
 H        -0.046225        -0.175638         2.897295
 H        -1.315511        -1.338413         1.955281
