19
Iteration:  1924charge 0 multiplicity 1
 O         0.725761         0.240437         0.183179
 C        -0.607184         0.396540         0.740379
 C        -1.898274         0.033472        -0.002683
 C        -2.577893         0.973216         1.056253
 C        -1.264402         1.868581         0.910987
 C        -1.141116         2.583589         2.234128
 O        -1.852766         1.754266         3.126814
 C        -2.094678         0.455105         2.437330
 C        -0.735006        -0.183166         2.075319
 H         0.988278        -0.652967         0.529307
 H        -2.049858         0.425220        -1.065060
 H        -2.324661        -1.024277        -0.111195
 H        -3.655595         1.159855         0.885948
 H        -1.081927         2.388218        -0.010007
 H        -0.050657         2.651633         2.392515
 H        -1.488113         3.530251         2.118803
 H        -2.701281        -0.202808         3.121636
 H         0.013991         0.076746         2.717073
 H        -0.689280        -1.279032         2.054702
