19
Iteration:  4872charge 0 multiplicity 1
 O         0.678421         0.134609         0.070611
 C        -0.569920         0.366268         0.716029
 C        -1.856647        -0.063364         0.014522
 C        -2.474469         1.013588         0.974329
 C        -1.249935         1.935397         0.913694
 C        -1.110244         2.533301         2.294310
 O        -1.945864         1.761517         3.153639
 C        -2.143561         0.495173         2.477430
 C        -0.750707        -0.197860         2.096500
 H         1.210796         0.796710         0.410046
 H        -1.890072         0.280760        -1.052507
 H        -2.080202        -1.139620         0.282117
 H        -3.458772         1.529218         0.946214
 H        -1.164740         2.683577         0.143338
 H        -0.086708         2.572468         2.668719
 H        -1.482111         3.590769         2.240706
 H        -2.954685        -0.039360         2.929433
 H         0.006330         0.165236         2.847437
 H        -0.852868        -1.267908         2.160973
