19
Iteration:  1627charge 0 multiplicity 1
 O         0.689288         0.320000         0.164208
 C        -0.572703         0.448868         0.771766
 C        -1.875953         0.013964         0.018249
 C        -2.556438         1.018390         0.956502
 C        -1.305324         1.866441         0.901265
 C        -0.981674         2.523563         2.284840
 O        -1.919881         1.705761         3.128003
 C        -2.153021         0.446503         2.407356
 C        -0.760398        -0.261699         2.104719
 H         0.724822        -0.580682         0.046876
 H        -1.749858         0.271875        -1.033455
 H        -2.348745        -0.929172         0.028044
 H        -3.508520         1.489792         0.884279
 H        -1.003172         2.448462         0.029075
 H        -0.020583         2.515004         2.736281
 H        -1.297858         3.569541         2.422882
 H        -2.871905        -0.107314         2.999012
 H         0.020931         0.111162         2.815300
 H        -0.686957        -1.359124         2.071278
