19
Iteration:  2614charge 0 multiplicity 1
 O         0.677369         0.177039         0.177465
 C        -0.588282         0.495764         0.704191
 C        -1.895636        -0.021471        -0.005003
 C        -2.617979         0.942886         1.087134
 C        -1.273442         1.926007         0.836750
 C        -1.194576         2.572124         2.191906
 O        -1.822000         1.722008         3.186570
 C        -2.081846         0.439725         2.417846
 C        -0.681357        -0.189295         2.129811
 H         1.253699         0.063738         1.009938
 H        -2.012070         0.372901        -1.073061
 H        -2.093582        -1.169068        -0.162483
 H        -3.571749         1.381757         0.740989
 H        -1.111601         2.494073        -0.134284
 H        -0.130044         2.772083         2.463411
 H        -1.690331         3.519846         2.254373
 H        -2.738685        -0.134283         2.974331
 H         0.122119         0.181011         2.717964
 H        -0.613532        -1.348461         2.046162
