19
Iteration:   611charge 0 multiplicity 1
 O         0.677158         0.107432         0.081045
 C        -0.548585         0.457814         0.721887
 C        -1.826234         0.066007         0.007874
 C        -2.542769         1.080351         0.979160
 C        -1.234333         1.940233         0.946265
 C        -1.066700         2.569022         2.224065
 O        -1.900021         1.694551         3.238103
 C        -2.174469         0.460344         2.388420
 C        -0.841106        -0.290221         2.119174
 H         1.479382         0.337181         0.732944
 H        -1.708071         0.346020        -1.098839
 H        -2.159941        -0.962365         0.074000
 H        -3.599861         1.429110         0.798050
 H        -1.083635         2.557269         0.038768
 H        -0.038586         2.479857         2.670539
 H        -1.379699         3.718408         2.388700
 H        -3.068036        -0.118994         2.876798
 H        -0.146121        -0.169707         2.991300
 H        -0.818169        -1.346257         1.789106
