19
Iteration:  4753
 O         0.630805         0.113931         0.065296
 C        -0.616428         0.451592         0.732330
 C        -1.860208         0.026160        -0.060824
 C        -2.497777         0.961719         1.032902
 C        -1.233325         1.947598         0.883794
 C        -0.968511         2.490926         2.354363
 O        -1.991638         1.696348         3.095200
 C        -2.155516         0.444098         2.457482
 C        -0.775464        -0.125226         2.164861
 H         1.305075         0.864802         0.188821
 H        -1.702431         0.444575        -1.010130
 H        -1.965217        -0.971155        -0.112392
 H        -3.493606         1.441695         0.921606
 H        -1.170894         2.626023         0.013689
 H        -0.018632         2.303423         2.886686
 H        -1.210387         3.576678         2.629887
 H        -2.827965        -0.126301         3.084255
 H        -0.019067         0.231759         2.922672
 H        -0.742500        -1.219742         2.132793
