19
Iteration:  1266charge 0 multiplicity 1
 O         0.662555         0.179790         0.200473
 C        -0.588608         0.444578         0.715676
 C        -1.837143         0.053347        -0.116674
 C        -2.532407         0.927301         0.994917
 C        -1.258064         1.896208         0.891029
 C        -1.081362         2.627833         2.231123
 O        -1.763829         1.634770         3.224833
 C        -2.181928         0.479724         2.453198
 C        -0.866848        -0.156320         2.085038
 H         1.365435        -0.044299         0.854292
 H        -1.922057         0.490396        -1.246502
 H        -1.941895        -1.029205        -0.099306
 H        -3.528384         1.450694         0.865678
 H        -1.500816         2.561492        -0.004157
 H         0.027200         2.709510         2.530715
 H        -1.534318         3.575944         2.437956
 H        -2.899470        -0.163695         2.993761
 H        -0.104867        -0.150777         2.906841
 H        -1.077028        -1.199550         1.916329
