19
Iteration:  3034
 O         0.771496         0.217912         0.086149
 C        -0.537205         0.338186         0.787679
 C        -1.901835        -0.004670         0.037014
 C        -2.502975         1.004377         0.999520
 C        -1.246601         1.906206         0.915160
 C        -1.249584         2.614453         2.213107
 O        -1.878466         1.708619         3.138984
 C        -2.078332         0.495112         2.394935
 C        -0.763010        -0.180457         2.201899
 H         0.601643        -0.640391        -0.423665
 H        -1.910633         0.453293        -0.935406
 H        -2.225108        -1.048547         0.070294
 H        -3.616057         1.170893         1.030500
 H        -1.147816         2.490323         0.104422
 H        -0.285085         2.786829         2.614565
 H        -1.707843         3.708449         2.140818
 H        -2.711183        -0.207523         3.076851
 H         0.055210         0.207530         2.928509
 H        -0.875114        -1.312474         2.210809
