19
Iteration:  4959charge 0 multiplicity 1
 O         0.689800         0.167077         0.287135
 C        -0.575654         0.436817         0.748656
 C        -1.897150         0.029174        -0.016824
 C        -2.542784         0.929605         1.002335
 C        -1.323000         1.850393         0.824803
 C        -1.180602         2.639601         2.103615
 O        -1.704162         1.694391         3.149655
 C        -2.134589         0.439236         2.450420
 C        -0.805693        -0.209426         2.142220
 H         1.378999         0.950426         0.462872
 H        -2.135622         0.537294        -1.043821
 H        -1.952899        -1.166226         0.162524
 H        -3.465491         1.567997         0.929084
 H        -1.194875         2.320625        -0.151156
 H        -0.174170         2.960849         2.374225
 H        -1.829677         3.466794         2.254637
 H        -2.913216        -0.065000         3.049771
 H         0.015493         0.035835         2.884485
 H        -0.876475        -1.278623         2.039762
