19
Iteration:  3827
 O         0.657367         0.278164         0.174176
 C        -0.570338         0.410372         0.779182
 C        -1.801791         0.024312         0.058083
 C        -2.515033         1.015053         0.950314
 C        -1.240250         1.846790         0.884912
 C        -1.035295         2.559406         2.233167
 O        -1.899098         1.685611         3.174130
 C        -2.152987         0.498052         2.403473
 C        -0.806244        -0.239654         2.155547
 H         0.403260        -0.128684        -0.587030
 H        -1.735320         0.144233        -1.016945
 H        -2.225451        -1.073659         0.052836
 H        -3.476018         1.487942         0.781386
 H        -1.074469         2.548140        -0.014941
 H         0.069561         2.530499         2.543419
 H        -1.505270         3.498303         2.288988
 H        -2.976548        -0.071345         2.815575
 H        -0.198863         0.125477         2.939674
 H        -0.841781        -1.342143         2.068092
