19
Iteration:  1051
 O         0.717631         0.279100         0.134072
 C        -0.560711         0.424243         0.699153
 C        -1.898403         0.004890        -0.051896
 C        -2.512724         1.002285         1.019463
 C        -1.211015         1.910311         0.925170
 C        -1.018877         2.504307         2.296812
 O        -1.931293         1.673588         3.122850
 C        -2.184004         0.513034         2.449320
 C        -0.809798        -0.204879         2.124694
 H         0.990969        -0.665951         0.401207
 H        -1.935876         0.403999        -1.064374
 H        -2.330875        -1.033090        -0.122982
 H        -3.523967         1.545133         0.951132
 H        -1.302568         2.577286        -0.005898
 H        -0.053035         2.261440         2.663219
 H        -1.147679         3.643541         2.475211
 H        -2.971102        -0.086707         2.901078
 H        -0.058372         0.126729         2.865987
 H        -0.797002        -1.352607         2.280439
