19
Iteration:  4007
 O         0.701749         0.204622         0.257858
 C        -0.560553         0.433690         0.765168
 C        -1.907364         0.065833        -0.025531
 C        -2.537294         1.042256         0.968022
 C        -1.177776         1.868825         0.935020
 C        -1.173415         2.619664         2.237322
 O        -1.778815         1.632995         3.149525
 C        -2.161947         0.497594         2.378946
 C        -0.822626        -0.309405         2.140242
 H         0.853639         0.320532        -0.637273
 H        -1.922706         0.474535        -1.104068
 H        -2.195558        -1.001877         0.084386
 H        -3.547776         1.363911         0.825538
 H        -1.156437         2.493687         0.117984
 H        -0.124391         2.909273         2.624800
 H        -1.799675         3.476217         2.143774
 H        -2.908682        -0.095292         2.944039
 H         0.044803        -0.095526         2.833554
 H        -0.807848        -1.364897         1.880969
