19
Iteration:   324charge 0 multiplicity 1
 O         0.756269         0.233796         0.247767
 C        -0.576614         0.404235         0.643409
 C        -1.964135         0.062087        -0.045517
 C        -2.540177         1.022083         0.920773
 C        -1.210766         1.811966         0.902791
 C        -1.070514         2.461942         2.292164
 O        -1.847390         1.705450         3.241750
 C        -2.167711         0.578886         2.367980
 C        -0.860937        -0.213022         2.059859
 H         1.239934        -0.099726         1.134144
 H        -1.970087         0.373723        -1.052108
 H        -2.292529        -1.015513         0.115106
 H        -3.504993         1.474925         0.805834
 H        -0.952588         2.542425         0.149093
 H         0.018878         2.555266         2.644100
 H        -1.576969         3.503360         2.123929
 H        -2.799192         0.007704         2.953516
 H         0.042093        -0.072674         2.651353
 H        -0.951712        -1.326366         1.956103
