19
Iteration:  3734
 O         0.721613         0.291391         0.137071
 C        -0.552506         0.355761         0.725294
 C        -1.915092        -0.046427        -0.022612
 C        -2.520232         0.988512         0.943554
 C        -1.272119         1.869466         0.894918
 C        -1.190003         2.562727         2.253646
 O        -1.842999         1.771105         3.200051
 C        -2.095831         0.566012         2.473037
 C        -0.761359        -0.289362         2.154826
 H         1.025707        -0.708304         0.002451
 H        -1.765741         0.281905        -1.098771
 H        -2.102269        -1.060984        -0.121520
 H        -3.545558         1.517572         0.888969
 H        -0.910918         2.468138         0.045107
 H        -0.208142         2.790704         2.513932
 H        -1.779337         3.559925         2.131320
 H        -2.863807         0.051088         3.097983
 H        -0.053879        -0.123214         3.023084
 H        -1.060339        -1.342400         2.066702
