19
Iteration:  2141
 O         0.691503         0.338485         0.109731
 C        -0.545335         0.362493         0.686654
 C        -1.993362        -0.039427        -0.006893
 C        -2.552297         0.946051         1.017545
 C        -1.185813         1.761397         0.909657
 C        -1.023004         2.503753         2.220818
 O        -1.946938         1.814500         3.178326
 C        -2.108589         0.498757         2.470443
 C        -0.772833        -0.178433         2.103520
 H         1.408380        -0.060082         0.798843
 H        -2.087676         0.206968        -1.081444
 H        -2.157396        -1.046029         0.229886
 H        -3.551323         1.287892         1.005467
 H        -1.094442         2.305545         0.021283
 H        -0.031832         2.635784         2.598587
 H        -1.516498         3.489431         2.162651
 H        -2.874816         0.032809         3.095666
 H         0.107297         0.248206         2.555485
 H        -0.838496        -1.290085         2.190938
