19
Iteration:  2404charge 0 multiplicity 1
 O         0.612431         0.179674         0.087575
 C        -0.595907         0.434950         0.697648
 C        -1.783648        -0.078376        -0.050702
 C        -2.561074         0.863630         1.031076
 C        -1.341961         1.868944         0.895721
 C        -1.054028         2.491070         2.326866
 O        -1.925608         1.803703         3.143393
 C        -2.136951         0.565162         2.481629
 C        -0.727887        -0.078310         2.132439
 H         1.369109         0.484688         0.534115
 H        -1.589483         0.286855        -1.041940
 H        -1.814534        -1.214860        -0.306330
 H        -3.608979         1.217819         1.034148
 H        -1.267590         2.391114        -0.014907
 H         0.081102         2.360466         2.449410
 H        -1.258804         3.524145         2.316941
 H        -2.679105        -0.107888         3.189543
 H         0.033159         0.252267         2.805651
 H        -0.744161        -1.223822         2.171188
