19
Iteration:  3129
 O         0.716010         0.398473         0.173287
 C        -0.573254         0.393318         0.743807
 C        -1.969483        -0.139264        -0.068160
 C        -2.570434         0.894346         1.003062
 C        -1.230311         1.789860         0.915538
 C        -1.062380         2.565261         2.206318
 O        -1.872891         1.839815         3.201968
 C        -2.158123         0.534573         2.442307
 C        -0.738308        -0.284256         2.101534
 H         1.265039        -0.104123         0.678429
 H        -1.860784         0.396419        -1.054650
 H        -2.341002        -1.210204        -0.028534
 H        -3.489073         1.395825         0.674457
 H        -1.358118         2.386900        -0.116166
 H         0.052104         2.609484         2.533762
 H        -1.375734         3.566950         2.279864
 H        -2.950748         0.049828         3.059500
 H         0.133981        -0.029277         2.715653
 H        -0.834305        -1.404819         2.134166
