19
Iteration:  2541charge 0 multiplicity 1
 O         0.661227         0.280689         0.006105
 C        -0.517562         0.405986         0.725667
 C        -1.879342        -0.061014         0.068318
 C        -2.562763         0.946520         1.039574
 C        -1.262637         1.834080         0.905481
 C        -1.036391         2.512697         2.259708
 O        -1.955621         1.781774         3.099713
 C        -2.161539         0.458859         2.408744
 C        -0.745308        -0.186935         2.198312
 H         1.288357         0.620980         0.631599
 H        -1.989760         0.231179        -0.996816
 H        -2.010602        -1.065138         0.042402
 H        -3.566593         1.295969         0.985894
 H        -1.028855         2.526517         0.042554
 H        -0.034533         2.410118         2.687952
 H        -1.259935         3.587806         2.340924
 H        -2.846060         0.019871         3.168570
 H        -0.118833         0.165431         3.077383
 H        -0.638578        -1.207950         2.058035
