19
Iteration:  3489
 O         0.830280         0.290253         0.120657
 C        -0.538634         0.377279         0.780984
 C        -1.991227        -0.061493        -0.029540
 C        -2.592870         0.913107         1.025906
 C        -1.283567         1.816127         0.861095
 C        -1.111128         2.599394         2.239170
 O        -1.902438         1.808370         3.098564
 C        -2.113960         0.464208         2.489119
 C        -0.752355        -0.159452         2.150582
 H         1.239527        -0.612817         0.345912
 H        -1.978518         0.278726        -1.043613
 H        -2.364358        -1.094964         0.098111
 H        -3.560917         1.358604         0.937311
 H        -1.237938         2.408267        -0.171390
 H        -0.072064         2.695937         2.554997
 H        -1.639058         3.699543         2.289817
 H        -2.781738        -0.029767         3.214830
 H        -0.030894         0.150925         2.914026
 H        -0.706963        -1.308098         2.152820
