19
Iteration:  2447
 O         0.736817         0.300800         0.056129
 C        -0.587030         0.374029         0.726763
 C        -1.894125        -0.114210         0.075926
 C        -2.552750         0.983098         1.018442
 C        -1.216614         1.760731         0.896374
 C        -1.184343         2.631510         2.231401
 O        -1.826394         1.722182         3.156237
 C        -2.117954         0.556105         2.443923
 C        -0.794137        -0.207297         2.119707
 H         1.510092         0.368114         0.769069
 H        -2.136067         0.114384        -0.975767
 H        -2.309956        -1.259831         0.125578
 H        -3.433818         1.624316         0.867071
 H        -1.209373         2.351189         0.049803
 H        -0.170235         2.806649         2.716268
 H        -1.716445         3.606259         2.198802
 H        -2.951963        -0.035964         2.928470
 H         0.049865         0.112451         2.810234
 H        -0.926922        -1.355170         1.969078
