19
Iteration:   647
 O         0.720885         0.316734         0.166411
 C        -0.638614         0.396070         0.710563
 C        -1.915088         0.021505        -0.119178
 C        -2.502001         1.017079         0.952397
 C        -1.179792         1.825275         0.902805
 C        -0.986459         2.554516         2.211578
 O        -1.796020         1.715284         3.300881
 C        -2.266370         0.456525         2.435264
 C        -0.902635        -0.301898         2.093625
 H         1.198779         0.107219         1.093248
 H        -1.866618         0.447122        -1.146468
 H        -2.346666        -0.974669        -0.024985
 H        -3.433217         1.465142         0.903000
 H        -0.904841         2.459826         0.082277
 H         0.033720         2.717227         2.455758
 H        -1.558098         3.609688         2.042075
 H        -2.969644        -0.086840         2.981687
 H        -0.185047         0.012287         2.871288
 H        -0.968031        -1.390562         2.032655
