19
Iteration:  2254
 O         0.574373         0.257921        -0.052163
 C        -0.551396         0.420260         0.749905
 C        -1.781454        -0.089619         0.062877
 C        -2.523440         0.931019         0.965660
 C        -1.234961         1.894470         0.928193
 C        -1.055226         2.519554         2.273900
 O        -1.926943         1.767707         3.149178
 C        -2.124853         0.528591         2.431359
 C        -0.801118        -0.195238         2.259658
 H         1.367182         0.234142         0.398382
 H        -1.665205         0.198882        -0.926153
 H        -1.841925        -1.114877         0.145037
 H        -3.604338         1.358056         0.938307
 H        -1.067195         2.581049        -0.000677
 H        -0.039412         2.524258         2.475030
 H        -1.483293         3.585631         2.261840
 H        -2.923181        -0.114002         2.872120
 H        -0.153709         0.028637         3.082960
 H        -0.980157        -1.290135         2.147937
