19
Iteration:  2605
 O         0.705159         0.188415         0.162336
 C        -0.572581         0.423726         0.671053
 C        -1.929814         0.015660         0.058963
 C        -2.504423         1.009058         1.018022
 C        -1.289290         1.902417         0.850317
 C        -1.219845         2.534401         2.174717
 O        -1.855909         1.694285         3.165676
 C        -2.058462         0.450357         2.461981
 C        -0.690748        -0.170521         2.105896
 H         1.290409         0.338479         0.990735
 H        -2.129276         0.343544        -1.039676
 H        -2.268724        -1.039136         0.235316
 H        -3.578364         1.228533         1.008986
 H        -1.159034         2.641534        -0.055203
 H        -0.097051         2.716494         2.421187
 H        -1.703751         3.443557         2.176504
 H        -2.777570        -0.203718         2.970703
 H        -0.126020         0.166661         2.943306
 H        -0.749027        -1.235166         2.015699
