19
Iteration:  2022
 O         0.681907         0.337953         0.200562
 C        -0.605003         0.437748         0.698760
 C        -1.835228        -0.132189        -0.006563
 C        -2.598608         0.855667         0.916265
 C        -1.383479         1.868260         0.834173
 C        -1.010118         2.488868         2.229002
 O        -1.760545         1.785939         3.220062
 C        -2.170518         0.534329         2.539826
 C        -0.837378        -0.100958         2.118386
 H         0.959135        -0.590462         0.209659
 H        -1.713619         0.213212        -1.039360
 H        -1.921395        -1.230758        -0.044826
 H        -3.524461         1.387709         0.769018
 H        -1.302353         2.511229         0.008178
 H         0.067227         2.429698         2.403558
 H        -1.208628         3.661189         2.353229
 H        -2.857360        -0.088785         3.124372
 H         0.060869         0.040516         2.639272
 H        -0.915137        -1.218755         1.906687
