19
Iteration:  3362charge 0 multiplicity 1
 O         0.670543         0.201380         0.060244
 C        -0.529069         0.451626         0.706213
 C        -1.896683        -0.074391         0.108605
 C        -2.548494         0.910126         0.976377
 C        -1.196940         1.820220         0.854713
 C        -1.077179         2.546986         2.261629
 O        -1.964400         1.772711         3.155066
 C        -2.138727         0.523365         2.425798
 C        -0.727632        -0.126082         2.141118
 H         1.289919         0.535154         0.639817
 H        -2.105564         0.161355        -0.958364
 H        -2.253726        -1.143652         0.284861
 H        -3.590932         1.126942         0.859519
 H        -0.957340         2.520046         0.017515
 H        -0.071962         2.627845         2.776029
 H        -1.482003         3.507403         2.225949
 H        -2.872718        -0.029638         2.955432
 H         0.038953         0.203066         2.894179
 H        -0.814069        -1.208985         2.170742
