19
Iteration:  3794charge 0 multiplicity 1
 O         0.759751         0.220347         0.147618
 C        -0.533943         0.326599         0.685433
 C        -1.927344        -0.013409        -0.028147
 C        -2.532702         0.919265         1.030946
 C        -1.273207         1.803141         0.913176
 C        -0.974926         2.556199         2.279568
 O        -2.017860         1.813446         3.200121
 C        -2.150627         0.559821         2.430665
 C        -0.790435        -0.241684         2.081853
 H         1.005192         1.093740        -0.323703
 H        -1.783363         0.437655        -0.978788
 H        -2.262980        -1.098091         0.135898
 H        -3.470775         1.369195         0.806034
 H        -1.172375         2.515071         0.028159
 H         0.081497         2.471140         2.749577
 H        -1.197177         3.586066         2.317143
 H        -2.863430        -0.076994         2.938831
 H        -0.073423         0.071125         2.796316
 H        -0.834286        -1.325938         2.258832
