19
Iteration:  4485charge 0 multiplicity 1
 O         0.738053         0.422557         0.261588
 C        -0.600447         0.372885         0.711859
 C        -1.916318        -0.018620        -0.110490
 C        -2.563217         1.062957         0.955754
 C        -1.227326         1.760719         0.908844
 C        -0.979418         2.391157         2.297200
 O        -1.936260         1.774697         3.217584
 C        -2.146070         0.458919         2.453806
 C        -0.814535        -0.240023         2.048547
 H         0.723120        -0.149955        -0.640000
 H        -1.982321         0.515433        -1.058145
 H        -2.364165        -1.020488         0.103346
 H        -3.588769         1.351441         0.861910
 H        -1.045541         2.604867         0.151555
 H         0.094963         2.354216         2.542464
 H        -1.056778         3.498724         2.304618
 H        -2.821988        -0.207623         3.047857
 H        -0.036198         0.316015         2.693857
 H        -0.679908        -1.361304         2.159515
