19
Iteration:  2232charge 0 multiplicity 1
 O         0.674572         0.156231         0.082835
 C        -0.576591         0.425401         0.718650
 C        -1.939513        -0.017066         0.008575
 C        -2.512580         0.945372         1.049176
 C        -1.213800         1.822809         0.917873
 C        -1.116739         2.589075         2.271726
 O        -1.961403         1.798451         3.126369
 C        -2.104627         0.502940         2.504220
 C        -0.685288        -0.224766         2.089669
 H         1.512596         0.422320         0.626095
 H        -1.934083         0.492944        -0.881027
 H        -2.150474        -1.021630        -0.081408
 H        -3.525477         1.465430         0.802870
 H        -1.260046         2.455897        -0.049161
 H        -0.115623         2.663586         2.558627
 H        -1.612050         3.626839         2.254259
 H        -2.800888        -0.190082         3.006892
 H         0.098806         0.116754         2.726189
 H        -0.733650        -1.328083         1.981190
