19
Iteration:  4084
 O         0.735082         0.274372         0.193922
 C        -0.559673         0.421178         0.758968
 C        -1.951624         0.016694        -0.000355
 C        -2.549869         1.000218         0.963003
 C        -1.205052         1.871385         0.881450
 C        -0.982188         2.443503         2.247976
 O        -2.021194         1.682867         3.151694
 C        -2.134002         0.500139         2.408445
 C        -0.757464        -0.184741         2.182513
 H         0.799889         0.666609        -0.750369
 H        -2.006486         0.166211        -1.127880
 H        -2.266077        -1.026313         0.135945
 H        -3.423476         1.607841         1.034895
 H        -0.942147         2.511279         0.124140
 H         0.102010         2.280486         2.527539
 H        -1.253593         3.427152         2.329540
 H        -2.951541        -0.038069         2.953927
 H         0.031429         0.027519         2.928774
 H        -0.732733        -1.252615         2.027512
