19
Iteration:  3594charge 0 multiplicity 1
 O         0.744301         0.238065         0.157098
 C        -0.582060         0.431116         0.741688
 C        -1.877635        -0.028389         0.096602
 C        -2.488849         0.978434         1.044792
 C        -1.306107         1.917947         0.758425
 C        -1.212113         2.640331         2.144387
 O        -1.783501         1.660803         3.148631
 C        -2.141208         0.454897         2.419592
 C        -0.770982        -0.195998         2.203735
 H         0.980161        -0.576595         0.463467
 H        -1.876499         0.304820        -0.999754
 H        -2.198091        -1.092572         0.087463
 H        -3.560514         1.422842         1.028940
 H        -1.344236         2.458458        -0.098588
 H        -0.119915         2.738571         2.524141
 H        -1.667223         3.595942         2.198928
 H        -3.054869         0.012219         2.913735
 H        -0.067039         0.127081         2.988769
 H        -0.804910        -1.242757         2.100622
