19
Iteration:  1219charge 0 multiplicity 1
 O         0.685308         0.272448         0.006761
 C        -0.600602         0.440099         0.739036
 C        -1.884488        -0.050628        -0.041804
 C        -2.443776         1.047138         1.049053
 C        -1.123318         1.827183         0.909389
 C        -1.010377         2.506144         2.257312
 O        -1.966292         1.710731         3.218245
 C        -2.204423         0.484109         2.415124
 C        -0.856353        -0.231448         2.130792
 H         1.424425         0.258367         0.791317
 H        -2.022345         0.500987        -1.013705
 H        -2.265145        -1.090428        -0.053143
 H        -3.406251         1.501520         1.027350
 H        -0.964733         2.458533         0.076978
 H        -0.091587         2.658837         2.795129
 H        -1.509036         3.602573         2.238853
 H        -3.050771        -0.139949         2.831755
 H        -0.208855         0.113565         2.999478
 H        -0.826855        -1.360117         2.203069
