19
Iteration:  4331
 O         0.733983         0.326335         0.256637
 C        -0.644763         0.398921         0.726685
 C        -1.992008        -0.024915        -0.049587
 C        -2.502347         1.024800         0.998699
 C        -1.227632         1.854588         0.942402
 C        -1.037592         2.493539         2.281027
 O        -1.886037         1.698160         3.100572
 C        -2.155076         0.534426         2.376603
 C        -0.723704        -0.331510         2.121962
 H         0.887276         0.959643        -0.569774
 H        -2.113572         0.308807        -1.070263
 H        -2.299695        -1.118733         0.075306
 H        -3.491551         1.388275         0.924003
 H        -1.046164         2.601230         0.039722
 H        -0.015994         2.422721         2.825045
 H        -1.393660         3.496198         2.319300
 H        -2.915405         0.060834         2.956151
 H         0.068990         0.058042         2.883142
 H        -0.743947        -1.462086         2.144126
