19
Iteration:  3707
 O         0.717147         0.263028         0.214854
 C        -0.560638         0.418532         0.710953
 C        -1.875032         0.040626         0.075073
 C        -2.505044         0.968728         1.083374
 C        -1.221041         1.813820         0.958394
 C        -1.114586         2.624143         2.156536
 O        -1.896356         1.756172         3.083122
 C        -2.195454         0.420733         2.471729
 C        -0.773681        -0.264525         2.078910
 H         0.683071        -0.160155        -0.746789
 H        -1.926897         0.365360        -0.959219
 H        -1.969860        -1.150445         0.148516
 H        -3.354521         1.569704         0.962895
 H        -1.131701         2.278397        -0.092093
 H        -0.030498         2.827671         2.562529
 H        -1.582298         3.569528         2.015283
 H        -2.947167        -0.031533         3.101995
 H        -0.120246         0.078950         2.869439
 H        -0.701160        -1.408950         1.969822
