19
Iteration:  2278charge 0 multiplicity 1
 O         0.674548         0.328623        -0.010733
 C        -0.527138         0.348100         0.710929
 C        -1.874068        -0.076534         0.103804
 C        -2.532406         0.959416         0.962876
 C        -1.216493         1.810910         0.912525
 C        -1.062824         2.496197         2.261116
 O        -1.890203         1.716282         3.173421
 C        -2.238269         0.562327         2.443984
 C        -0.788171        -0.146974         2.171127
 H         1.471974         0.403136         0.555399
 H        -1.921972         0.074457        -0.973250
 H        -2.233888        -1.022668         0.468523
 H        -3.520622         1.464390         0.823248
 H        -1.062781         2.273768        -0.080795
 H        -0.020727         2.435492         2.516299
 H        -1.432305         3.579057         2.183617
 H        -2.994904        -0.022929         2.981655
 H        -0.147655         0.377890         2.960189
 H        -0.712617        -1.214452         2.170885
