19
Iteration:  3524
 O         0.593794         0.420553         0.113178
 C        -0.577917         0.414874         0.836373
 C        -1.837862        -0.156507         0.131798
 C        -2.576386         0.935790         0.950346
 C        -1.206203         1.849097         0.821200
 C        -0.958866         2.491367         2.231985
 O        -1.921318         1.767640         3.097895
 C        -2.182409         0.523886         2.397820
 C        -0.759734        -0.154747         2.189543
 H         1.027505        -0.436071         0.095443
 H        -1.701089         0.032255        -0.894762
 H        -2.132753        -1.186006         0.241113
 H        -3.621060         1.082462         0.758865
 H        -0.999344         2.331633        -0.267007
 H         0.106170         2.402845         2.521994
 H        -1.316542         3.607010         2.501118
 H        -2.908647        -0.066364         2.918818
 H        -0.070459         0.136236         2.958891
 H        -0.851701        -1.238315         2.090217
