19
Iteration:  4283charge 0 multiplicity 1
 O         0.718153         0.089209         0.148450
 C        -0.516008         0.380696         0.720819
 C        -1.779597         0.091601        -0.075942
 C        -2.490825         0.973873         0.943636
 C        -1.294020         1.894541         0.972855
 C        -1.211057         2.667952         2.284861
 O        -1.812980         1.672871         3.235484
 C        -2.173327         0.440857         2.437653
 C        -0.825773        -0.212172         2.128784
 H         0.646666         0.408026        -0.691248
 H        -1.868828         0.626705        -1.119977
 H        -2.145901        -0.972872        -0.132510
 H        -3.456885         1.523482         0.686179
 H        -1.281675         2.559824         0.183880
 H        -0.144215         2.864810         2.627452
 H        -1.802545         3.671779         2.523961
 H        -2.987922        -0.001321         3.061116
 H        -0.045044         0.082701         2.776996
 H        -0.796560        -1.308669         2.009458
