19
Iteration:  2662
 O         0.674193         0.426853         0.044271
 C        -0.530799         0.383994         0.781323
 C        -1.925871        -0.098981         0.106590
 C        -2.531307         0.989609         1.036553
 C        -1.196920         1.766530         0.904042
 C        -1.065008         2.596759         2.187218
 O        -1.929325         1.726434         3.115825
 C        -2.146824         0.528027         2.471002
 C        -0.756857        -0.252934         2.105381
 H         1.244434        -0.279570         0.516274
 H        -1.829516         0.014495        -1.015757
 H        -2.255426        -1.126892         0.259419
 H        -3.517695         1.407641         0.880787
 H        -1.163030         2.203969        -0.117340
 H        -0.024616         2.733635         2.629028
 H        -1.550763         3.532102         2.191123
 H        -2.981057        -0.049577         3.055540
 H        -0.122728        -0.060165         3.002964
 H        -0.770663        -1.266041         1.938068
