19
Iteration:  1637
 O         0.678504         0.240717         0.140955
 C        -0.535782         0.446717         0.751414
 C        -1.833896        -0.012028        -0.053677
 C        -2.545016         0.964148         0.920167
 C        -1.290614         1.885777         0.903593
 C        -1.067691         2.491266         2.392461
 O        -1.863707         1.748826         3.201536
 C        -2.121663         0.472183         2.426952
 C        -0.841117        -0.152444         2.117786
 H         0.733100        -0.591639        -0.283365
 H        -1.870481         0.603153        -1.043519
 H        -2.025277        -1.070266        -0.156053
 H        -3.543905         1.229282         0.774387
 H        -1.222375         2.473316        -0.016287
 H         0.050180         2.504869         2.562196
 H        -1.447508         3.462124         2.329784
 H        -2.879630        -0.026122         2.954979
 H         0.002417         0.155516         2.789129
 H        -0.898157        -1.207539         2.123392
