19
Iteration:  3198
 O         0.709254         0.084709         0.076601
 C        -0.538195         0.382615         0.704906
 C        -1.911495        -0.021649        -0.000058
 C        -2.496154         0.951014         0.981792
 C        -1.218013         1.852018         0.867173
 C        -1.190038         2.581281         2.284022
 O        -1.923282         1.695403         3.202715
 C        -2.125941         0.549219         2.441890
 C        -0.725238        -0.074808         2.138591
 H         1.424952         0.677554         0.491820
 H        -1.980034         0.454815        -0.984974
 H        -2.203724        -1.132418         0.046267
 H        -3.435968         1.520044         1.054440
 H        -1.253377         2.506523         0.083163
 H        -0.223031         2.877441         2.691479
 H        -1.708070         3.547522         2.098622
 H        -2.891126        -0.115346         2.905915
 H         0.039596         0.266669         2.938759
 H        -0.779213        -1.224167         2.193121
