19
Iteration:   963
 O         0.773239         0.265388         0.173599
 C        -0.618252         0.446121         0.654384
 C        -1.859015         0.013664        -0.091668
 C        -2.525708         1.022608         1.015522
 C        -1.281690         1.853398         0.952189
 C        -1.033794         2.504840         2.280826
 O        -1.832091         1.729370         3.193754
 C        -2.119054         0.486358         2.396714
 C        -0.940014        -0.218206         2.111531
 H         0.893383        -0.611967         0.439111
 H        -1.883852         0.291145        -1.201787
 H        -2.225832        -1.084580        -0.016557
 H        -3.583916         1.408369         0.908397
 H        -1.228454         2.610654         0.087637
 H        -0.023709         2.575774         2.734352
 H        -1.344492         3.567923         2.344750
 H        -2.846996        -0.064304         2.946235
 H        -0.122331        -0.045170         2.848894
 H        -1.051990        -1.354779         2.207664
