19
Iteration:  4506
 O         0.690839         0.502012         0.182766
 C        -0.603490         0.415304         0.707959
 C        -1.891756        -0.035386        -0.008102
 C        -2.539356         0.972745         1.004214
 C        -1.242642         1.807828         0.855953
 C        -0.918269         2.418630         2.338454
 O        -1.871663         1.667890         3.102589
 C        -2.187966         0.528850         2.407784
 C        -0.864414        -0.246565         2.154385
 H         0.874328        -0.303974        -0.179040
 H        -1.970041         0.480478        -0.955923
 H        -2.115956        -1.147648         0.072033
 H        -3.470249         1.460045         0.854162
 H        -1.104487         2.569027         0.051877
 H         0.008083         2.276180         2.875472
 H        -1.016151         3.551065         2.369421
 H        -3.030671         0.043132         2.910933
 H        -0.086037        -0.161267         2.979256
 H        -1.115631        -1.306336         1.940159
