19
Iteration:   273charge 0 multiplicity 1
 O         0.670701         0.143462        -0.027231
 C        -0.546663         0.379671         0.720197
 C        -1.766396         0.007906        -0.080657
 C        -2.482295         1.039057         0.975419
 C        -1.165615         1.777149         0.951745
 C        -1.071542         2.534034         2.308944
 O        -2.040235         1.808169         3.291266
 C        -2.231934         0.566752         2.466851
 C        -0.868426        -0.214457         2.140150
 H         1.500280         0.337899         0.508152
 H        -1.561769         0.386048        -1.100197
 H        -1.971262        -1.089230        -0.198300
 H        -3.354439         1.619142         0.689539
 H        -0.885655         2.399206         0.114162
 H        -0.059610         2.493170         2.712238
 H        -1.364498         3.505380         2.267654
 H        -2.851158        -0.078828         3.133091
 H         0.033745        -0.071577         2.744777
 H        -0.887607        -1.301089         2.123465
