19
Iteration:   362
 O         0.607068         0.291071         0.174715
 C        -0.608314         0.464502         0.867593
 C        -1.771614         0.133253         0.045720
 C        -2.525552         1.040432         0.929811
 C        -1.210269         1.826211         0.918191
 C        -1.064499         2.471062         2.202050
 O        -1.787821         1.722755         3.131337
 C        -2.154429         0.497825         2.397722
 C        -0.899108        -0.377007         2.095840
 H         1.263190        -0.119787         0.806133
 H        -1.694368         0.505041        -1.077605
 H        -2.087957        -0.897738        -0.094918
 H        -3.534970         1.405143         0.605372
 H        -1.038450         2.422328        -0.004865
 H         0.008453         2.627361         2.402916
 H        -1.457762         3.398648         2.218566
 H        -3.148517         0.078812         2.841249
 H        -0.266996        -0.404818         3.017653
 H        -1.238672        -1.398950         1.919634
