19
Iteration:  1229charge 0 multiplicity 1
 O         0.688236         0.235740         0.093013
 C        -0.496967         0.407223         0.706620
 C        -1.954873         0.025518        -0.054741
 C        -2.519381         1.009621         1.040038
 C        -1.189930         1.852872         0.928886
 C        -1.017190         2.576413         2.300002
 O        -1.936994         1.661850         3.151832
 C        -2.150036         0.466479         2.415938
 C        -0.843157        -0.184492         2.153753
 H         1.511763         0.145151         0.748783
 H        -2.021088         0.384362        -1.072958
 H        -2.298729        -1.033103        -0.059030
 H        -3.434051         1.527192         0.918485
 H        -1.086105         2.388963         0.037686
 H        -0.033819         2.598922         2.703856
 H        -1.542171         3.657564         2.139398
 H        -2.915984        -0.072061         3.025036
 H        -0.022625        -0.029047         2.897284
 H        -1.015549        -1.266927         1.867143
