19
Iteration:  1868
 O         0.612017         0.438601         0.108103
 C        -0.605065         0.441015         0.802366
 C        -1.799179        -0.133171         0.047258
 C        -2.522543         0.959980         0.984208
 C        -1.260905         1.889468         0.890093
 C        -0.939507         2.528664         2.272637
 O        -1.833303         1.701128         3.087705
 C        -2.205842         0.552476         2.373762
 C        -0.846323        -0.282385         2.237976
 H         0.831166        -0.426652         0.107741
 H        -1.887751         0.326533        -1.054643
 H        -2.000985        -1.193522         0.302071
 H        -3.555949         1.273301         0.641900
 H        -1.421565         2.323442        -0.114571
 H         0.140544         2.385811         2.473088
 H        -1.236200         3.557230         2.314306
 H        -2.962650        -0.049757         2.966069
 H        -0.089066        -0.057907         2.941650
 H        -1.018712        -1.326572         2.002684
