19
Iteration:   117
 O         0.679628         0.069853         0.199960
 C        -0.550668         0.511952         0.744608
 C        -1.860921         0.105328        -0.034985
 C        -2.517114         0.996498         0.977813
 C        -1.195140         1.922533         0.970095
 C        -1.031661         2.535716         2.381552
 O        -2.004690         1.728710         3.089233
 C        -2.126703         0.452567         2.417063
 C        -0.750676        -0.183274         2.063597
 H         0.387863        -0.512440        -0.492639
 H        -1.743176         0.519351        -1.047838
 H        -2.209262        -1.013388        -0.149448
 H        -3.506506         1.452302         0.673033
 H        -1.171538         2.661924         0.136761
 H        -0.003741         2.455843         2.845869
 H        -1.499094         3.533760         2.483649
 H        -2.850156        -0.094990         2.985990
 H         0.061122        -0.043597         2.844884
 H        -0.764848        -1.322372         1.872983
