19
Iteration:  1736
 O         0.708238         0.245403         0.191051
 C        -0.620225         0.393508         0.674313
 C        -1.911384         0.009920        -0.029052
 C        -2.581042         0.936955         1.027462
 C        -1.316017         1.884786         0.868990
 C        -0.984918         2.546026         2.267674
 O        -1.876798         1.792495         3.138879
 C        -2.109351         0.418420         2.443771
 C        -0.812687        -0.254224         2.152796
 H         1.214866         1.078290         0.411492
 H        -1.757859         0.370128        -1.179456
 H        -2.157795        -1.086996        -0.033450
 H        -3.522334         1.358569         0.746236
 H        -1.239633         2.448253        -0.078541
 H         0.133189         2.331967         2.603570
 H        -1.226144         3.599072         2.381689
 H        -2.815742        -0.052496         3.147658
 H        -0.022133        -0.050738         2.865896
 H        -0.782498        -1.321596         1.997406
