19
Iteration:  2783
 O         0.651192         0.316286         0.111093
 C        -0.562839         0.429651         0.753727
 C        -1.830638        -0.061841         0.035790
 C        -2.524675         0.944239         0.967554
 C        -1.312752         1.839551         0.904932
 C        -1.142937         2.560986         2.220353
 O        -1.820774         1.750095         3.170895
 C        -2.113864         0.524725         2.398925
 C        -0.792833        -0.215568         2.150389
 H         1.064282        -0.526390         0.392126
 H        -1.732053         0.266259        -1.001933
 H        -2.116182        -1.080937         0.240181
 H        -3.561322         1.329948         0.867023
 H        -1.121759         2.419957         0.020871
 H        -0.023132         2.663894         2.371095
 H        -1.556501         3.490162         2.184564
 H        -2.825823        -0.105847         3.070960
 H        -0.162897        -0.016458         3.057857
 H        -0.780878        -1.247235         2.114331
