19
Iteration:  2905
 O         0.653741         0.136975         0.140796
 C        -0.595244         0.413839         0.709896
 C        -1.859604         0.006884        -0.064124
 C        -2.540846         0.942510         1.044301
 C        -1.267723         1.834421         0.910382
 C        -1.186138         2.608943         2.234323
 O        -1.891769         1.714873         3.142371
 C        -2.028427         0.551290         2.455878
 C        -0.679276        -0.181765         2.082893
 H         1.211323         0.058108         0.913197
 H        -2.071209         0.475160        -0.982362
 H        -2.201973        -1.040797        -0.184270
 H        -3.558913         1.502724         1.066739
 H        -1.079414         2.538947         0.091047
 H        -0.164895         2.738100         2.787202
 H        -1.763367         3.498632         2.192137
 H        -2.885515        -0.030796         3.036045
 H         0.056883         0.214182         2.890571
 H        -0.741744        -1.195153         2.180618
