19
Iteration:  2706charge 0 multiplicity 1
 O         0.749887         0.309482         0.141246
 C        -0.568464         0.451055         0.743453
 C        -1.818556        -0.031590         0.062621
 C        -2.597893         0.861193         1.003990
 C        -1.356331         1.806516         0.907227
 C        -1.039376         2.509544         2.182835
 O        -1.869546         1.777816         3.166699
 C        -2.192310         0.466082         2.453740
 C        -0.771223        -0.086366         2.122670
 H         0.860263        -0.698398        -0.154447
 H        -1.908662         0.410452        -0.977552
 H        -2.146699        -1.061229        -0.051109
 H        -3.526546         1.402622         0.771338
 H        -1.467320         2.475719         0.038171
 H         0.070291         2.433253         2.436864
 H        -1.229635         3.545873         2.132967
 H        -2.755665        -0.230386         3.222397
 H         0.050034         0.236088         2.838874
 H        -0.796729        -1.112753         2.112941
