19
Iteration:   892
 O         0.660742         0.120081         0.059593
 C        -0.549342         0.424755         0.702447
 C        -1.830491         0.041850         0.011437
 C        -2.430648         1.060648         1.022524
 C        -1.179119         1.925560         0.876311
 C        -1.065478         2.451621         2.282351
 O        -1.950607         1.694766         3.202988
 C        -2.176511         0.504395         2.431069
 C        -0.876799        -0.207074         2.121746
 H         1.296846         0.686848         0.352901
 H        -1.787651         0.420348        -0.974570
 H        -1.986837        -1.018209        -0.043984
 H        -3.344137         1.647412         1.059300
 H        -1.364951         2.619257         0.080018
 H        -0.153047         2.537749         2.736426
 H        -1.478186         3.533710         2.364887
 H        -3.029875        -0.017802         2.948156
 H        -0.174396        -0.100705         2.942440
 H        -0.936086        -1.267603         1.966347
