19
Iteration:  4129
 O         0.742382         0.144034         0.166490
 C        -0.538930         0.484849         0.816286
 C        -1.823684         0.063512        -0.060885
 C        -2.563676         1.067133         0.969213
 C        -1.255306         1.909118         0.863207
 C        -1.185096         2.571220         2.254270
 O        -1.839046         1.679261         3.239566
 C        -2.104504         0.407181         2.452280
 C        -0.807331        -0.201768         2.134217
 H         0.437061        -0.101134        -0.738508
 H        -1.704706         0.457457        -1.132407
 H        -2.080339        -0.975822        -0.215396
 H        -3.594070         1.362676         0.613281
 H        -1.157553         2.386181        -0.035172
 H        -0.163295         2.671519         2.684459
 H        -1.649112         3.475866         2.119811
 H        -2.864504        -0.029161         3.142610
 H        -0.136815        -0.251846         2.964570
 H        -1.084333        -1.274374         1.981200
