19
Iteration:  3816
 O         0.679875         0.274688         0.142283
 C        -0.567137         0.454974         0.760971
 C        -1.865922        -0.022849        -0.031402
 C        -2.484105         0.992796         0.993475
 C        -1.150843         1.832470         0.919153
 C        -1.080708         2.436645         2.237579
 O        -1.895881         1.709082         3.109137
 C        -2.206275         0.515499         2.487847
 C        -0.855332        -0.161352         2.192069
 H         0.685109         0.286600        -0.861203
 H        -1.810467         0.416509        -1.015122
 H        -2.014069        -1.143605         0.222766
 H        -3.438290         1.439950         0.765892
 H        -1.006912         2.491339        -0.011660
 H        -0.051053         2.551857         2.739276
 H        -1.403827         3.440970         2.185468
 H        -2.845838        -0.021945         3.174590
 H        -0.078742        -0.005443         2.891230
 H        -0.951969        -1.266630         2.185539
