19
Iteration:  3151
 O         0.710972         0.285306         0.068983
 C        -0.560609         0.426863         0.775461
 C        -1.809233         0.001852         0.023243
 C        -2.552661         0.973887         1.086032
 C        -1.222916         1.823952         0.887253
 C        -1.164295         2.552950         2.169998
 O        -1.872888         1.734388         3.107413
 C        -2.075972         0.513249         2.469233
 C        -0.845491        -0.245726         2.147692
 H         1.348046        -0.052125         0.841685
 H        -2.015013         0.495932        -0.959567
 H        -2.052320        -1.096330         0.125364
 H        -3.610658         1.205937         0.867804
 H        -1.328993         2.336314        -0.181742
 H        -0.107383         2.811334         2.546009
 H        -1.656492         3.488059         2.144760
 H        -2.816945        -0.101686         3.043350
 H        -0.160140        -0.131300         2.980959
 H        -1.126249        -1.323004         2.068317
