19
Iteration:  2434
 O         0.711713         0.236048         0.087931
 C        -0.565232         0.437147         0.727398
 C        -1.918053        -0.076953         0.072443
 C        -2.552702         1.009721         1.068609
 C        -1.285761         1.889322         0.843723
 C        -1.099768         2.495554         2.209168
 O        -1.884253         1.710949         3.117733
 C        -2.138428         0.487309         2.422052
 C        -0.756728        -0.149241         2.131349
 H         1.343065         0.460388         0.785777
 H        -1.798342         0.239120        -1.023157
 H        -2.055065        -1.201744         0.261655
 H        -3.549147         1.318356         1.080900
 H        -1.154982         2.425559        -0.051654
 H        -0.036754         2.609036         2.470914
 H        -1.555880         3.561002         2.194385
 H        -2.815459        -0.114668         3.082737
 H         0.002009         0.204668         2.978627
 H        -0.718170        -1.260779         2.235152
