19
Iteration:  1279
 O         0.739622         0.219280         0.122025
 C        -0.580538         0.479826         0.730428
 C        -1.874303         0.053568         0.003131
 C        -2.578237         0.967969         0.958475
 C        -1.247791         1.852770         0.947420
 C        -1.136390         2.514955         2.289111
 O        -1.747814         1.681122         3.144579
 C        -2.153005         0.538403         2.421450
 C        -0.894176        -0.267848         2.105878
 H         1.260768         0.115275         0.938339
 H        -1.877845         0.557891        -1.036963
 H        -2.302105        -0.982054        -0.121064
 H        -3.584958         1.321001         0.672206
 H        -1.073275         2.474712         0.006812
 H        -0.052536         2.744943         2.644014
 H        -1.611933         3.429831         2.187452
 H        -2.844269         0.091581         3.097098
 H        -0.157041         0.031970         2.837572
 H        -0.943461        -1.362064         2.047180
