19
Iteration:  1010
 O         0.694487         0.341880         0.105521
 C        -0.584447         0.385190         0.760700
 C        -1.898901         0.001273        -0.041595
 C        -2.442267         1.044281         1.029784
 C        -1.159297         1.862010         0.861878
 C        -1.056757         2.539585         2.335359
 O        -1.894847         1.676290         3.102913
 C        -2.197241         0.494091         2.407621
 C        -0.863608        -0.262454         2.211914
 H         0.976398        -0.480147        -0.200198
 H        -1.959646         0.342545        -1.047509
 H        -2.268677        -1.154527        -0.025370
 H        -3.366161         1.682564         0.920476
 H        -1.209937         2.480102        -0.049641
 H         0.081804         2.607823         2.660687
 H        -1.397457         3.521301         2.439904
 H        -3.006765         0.028209         3.007603
 H        -0.169300        -0.177660         3.052780
 H        -0.937656        -1.394842         2.129251
