19
Iteration:  2797charge 0 multiplicity 1
 O         0.679577         0.300075         0.166777
 C        -0.605938         0.431281         0.772699
 C        -1.840956        -0.043446         0.009588
 C        -2.614900         0.909517         1.023848
 C        -1.301229         1.856407         0.859577
 C        -1.050285         2.552832         2.204943
 O        -1.895101         1.779579         3.127913
 C        -2.121222         0.520541         2.486214
 C        -0.697506        -0.237750         2.091689
 H         1.228732        -0.325179         0.695441
 H        -1.953314         0.348119        -0.975363
 H        -1.951750        -1.166219        -0.144187
 H        -3.742707         1.219135         0.864395
 H        -1.259664         2.467564        -0.036382
 H        -0.061747         2.481864         2.643125
 H        -1.278064         3.599020         2.314586
 H        -2.946569         0.006940         3.044688
 H         0.273932         0.027612         2.523996
 H        -0.973800        -1.290567         1.983930
