19
Iteration:  4271
 O         0.683052         0.125380         0.224056
 C        -0.596962         0.421106         0.759157
 C        -1.823662         0.081351        -0.031391
 C        -2.526569         1.050704         1.000019
 C        -1.236776         1.909810         0.932521
 C        -1.207681         2.611819         2.304574
 O        -1.854239         1.674785         3.230802
 C        -2.109889         0.464389         2.363142
 C        -0.743147        -0.247317         2.038813
 H         0.664891         0.096093        -0.795565
 H        -1.572453         0.518899        -1.097869
 H        -2.147256        -0.972326        -0.146148
 H        -3.616428         1.355615         0.894538
 H        -1.108953         2.360364         0.030885
 H        -0.178515         2.740518         2.699826
 H        -1.693084         3.673636         2.013401
 H        -2.731650        -0.304670         2.906721
 H        -0.119676         0.066872         2.829163
 H        -0.714871        -1.334685         2.010668
