19
Iteration:    41charge 0 multiplicity 1
 O         0.701509         0.298475         0.311303
 C        -0.588064         0.463982         0.782948
 C        -1.956276         0.113423        -0.070961
 C        -2.552534         1.028910         0.942072
 C        -1.266836         1.886130         0.884862
 C        -0.960933         2.449589         2.218136
 O        -1.794891         1.655064         3.089198
 C        -2.156757         0.467994         2.410769
 C        -0.881386        -0.274845         2.092821
 H         1.221378        -0.204246         1.058059
 H        -1.995289         0.506673        -1.079049
 H        -2.354504        -0.951825        -0.138159
 H        -3.590884         1.512426         0.892978
 H        -1.159933         2.574255        -0.004163
 H         0.089932         2.356126         2.562311
 H        -1.206309         3.591220         2.429853
 H        -2.948448         0.021085         3.012946
 H        -0.126211        -0.421514         2.898474
 H        -0.975450        -1.351440         1.840550
