19
Iteration:  2516
 O         0.675185         0.222218         0.159913
 C        -0.573652         0.411708         0.633904
 C        -1.921723        -0.110798        -0.011538
 C        -2.517306         0.998278         1.022534
 C        -1.295969         1.822272         0.842970
 C        -1.128757         2.548723         2.252664
 O        -1.899976         1.693683         3.218817
 C        -2.073848         0.547629         2.459125
 C        -0.707579        -0.082653         2.072725
 H         1.203875         0.256057         1.047770
 H        -2.083478         0.176302        -1.062690
 H        -2.005543        -1.221848         0.039280
 H        -3.502367         1.563309         0.897393
 H        -1.255571         2.494791        -0.092630
 H        -0.058263         2.548827         2.646682
 H        -1.513020         3.501636         2.371633
 H        -2.653978        -0.044316         3.113667
 H         0.051333         0.144811         2.747130
 H        -0.858168        -1.189066         1.971296
