19
Iteration:   770charge 0 multiplicity 1
 O         0.747303         0.305955         0.215127
 C        -0.584397         0.430495         0.690692
 C        -1.891701         0.050508        -0.076039
 C        -2.511315         0.995971         1.010203
 C        -1.214197         1.804668         0.906396
 C        -1.030710         2.533095         2.254583
 O        -1.854603         1.721543         3.184680
 C        -2.168313         0.495509         2.430430
 C        -0.906376        -0.274425         2.106242
 H         0.974831        -0.554498        -0.326641
 H        -1.995711         0.442097        -1.031283
 H        -2.201597        -1.009800         0.163778
 H        -3.531538         1.514437         0.815434
 H        -1.091140         2.399557        -0.053332
 H        -0.005961         2.390574         2.556280
 H        -1.407271         3.657686         2.546554
 H        -2.998734        -0.012000         2.956779
 H        -0.219603         0.179965         2.804292
 H        -1.012725        -1.365230         2.315826
