19
Iteration:  4407charge 0 multiplicity 1
 O         0.732073         0.193103         0.175767
 C        -0.587779         0.425333         0.666334
 C        -1.925160         0.084321        -0.002133
 C        -2.480518         1.077735         1.056351
 C        -1.121679         1.822876         0.917347
 C        -1.203270         2.513203         2.273984
 O        -1.881295         1.714224         3.207205
 C        -2.198378         0.437436         2.394500
 C        -0.742723        -0.276777         2.089945
 H         0.967862         0.570052        -0.612458
 H        -1.852685         0.448456        -1.032303
 H        -2.212394        -1.048258        -0.074458
 H        -3.411585         1.558645         1.054848
 H        -1.088558         2.580794         0.041249
 H        -0.195967         2.927262         2.578015
 H        -1.928795         3.322156         2.179728
 H        -2.931978        -0.119233         2.926541
 H         0.029166         0.119492         2.861289
 H        -0.765125        -1.384650         2.212827
