19
Iteration:  3014charge 0 multiplicity 1
 O         0.696733         0.200321         0.200368
 C        -0.607175         0.481372         0.692094
 C        -1.813008        -0.077385         0.003552
 C        -2.539022         0.917631         0.962605
 C        -1.261532         1.876560         0.868822
 C        -1.139107         2.591768         2.277235
 O        -1.837314         1.743817         3.221628
 C        -2.157088         0.495191         2.452981
 C        -0.737075        -0.141365         2.079386
 H         0.582769        -0.557942        -0.260671
 H        -1.910366         0.217231        -0.976837
 H        -1.897004        -1.101180         0.248242
 H        -3.533366         1.446317         0.790652
 H        -1.349356         2.487314        -0.011708
 H        -0.106180         2.832934         2.399716
 H        -1.704459         3.573431         2.279669
 H        -3.011666        -0.145759         2.864647
 H         0.072765         0.118913         2.828721
 H        -0.735880        -1.191622         2.064241
