19
Iteration:  2976
 O         0.738214         0.479225         0.163808
 C        -0.622791         0.386480         0.768675
 C        -1.957912        -0.043194         0.003052
 C        -2.508240         0.978209         1.043060
 C        -1.231459         1.756838         0.897787
 C        -1.009696         2.515646         2.152081
 O        -1.918657         1.804686         3.086224
 C        -2.164888         0.464253         2.420659
 C        -0.762577        -0.296437         2.275368
 H         0.891381        -0.454997        -0.109021
 H        -2.001224         0.290626        -1.123239
 H        -2.087914        -1.173915        -0.080721
 H        -3.473419         1.398411         0.971629
 H        -1.385180         2.324198        -0.091191
 H         0.005939         2.322890         2.561042
 H        -1.303930         3.627078         2.209488
 H        -2.905783         0.036214         3.037290
 H         0.192120        -0.025673         2.681812
 H        -0.849624        -1.506861         2.229922
