19
Iteration:  3440charge 0 multiplicity 1
 O         0.780919         0.256877         0.082188
 C        -0.556640         0.369472         0.724958
 C        -1.901635        -0.103233         0.082756
 C        -2.584401         0.948826         0.969335
 C        -1.248053         1.864371         0.896565
 C        -1.214947         2.680258         2.192703
 O        -1.773072         1.705475         3.203180
 C        -2.156819         0.557824         2.388928
 C        -0.780224        -0.215439         2.159899
 H         1.303171        -0.083351         0.841582
 H        -2.017283         0.274801        -1.011447
 H        -2.173649        -1.198390         0.113448
 H        -3.648552         1.137102         0.678773
 H        -1.191365         2.520361         0.073147
 H        -0.154195         2.952788         2.445774
 H        -1.842923         3.490806         2.178697
 H        -2.973920         0.031565         2.881647
 H        -0.061174         0.065777         2.977839
 H        -0.940208        -1.304129         2.280904
