19
Iteration:  2917charge 0 multiplicity 1
 O         0.672913         0.173588         0.148244
 C        -0.568762         0.458387         0.734385
 C        -1.884478         0.015107         0.060222
 C        -2.564586         0.957842         1.011040
 C        -1.289187         1.897861         0.869911
 C        -1.138273         2.565356         2.233157
 O        -1.842218         1.688591         3.123381
 C        -2.116820         0.461574         2.423020
 C        -0.746379        -0.121019         2.122068
 H         1.252517        -0.231575         0.782385
 H        -1.802712         0.448715        -0.923681
 H        -2.134647        -1.080543         0.059675
 H        -3.618004         1.293917         0.770762
 H        -1.302929         2.449298        -0.110087
 H        -0.024881         2.652966         2.564717
 H        -1.492601         3.554891         2.244294
 H        -2.777384        -0.207741         3.051356
 H         0.132125         0.203049         2.735457
 H        -0.719113        -1.190724         2.042968
