19
Iteration:  1103
 O         0.704299         0.309421         0.105630
 C        -0.546231         0.398388         0.748007
 C        -1.834139         0.024284        -0.026100
 C        -2.550200         0.999381         0.964530
 C        -1.212040         1.944207         0.897271
 C        -1.098896         2.545985         2.290475
 O        -1.752234         1.694535         3.229194
 C        -2.203073         0.494388         2.377161
 C        -0.920054        -0.319131         2.139642
 H         1.306822        -0.301991         0.751357
 H        -2.086094         0.363590        -1.075999
 H        -2.203310        -0.943614         0.038279
 H        -3.657909         1.235824         0.767347
 H        -1.038348         2.474154        -0.112856
 H        -0.044843         2.797656         2.578972
 H        -1.606794         3.611915         2.231689
 H        -2.970101        -0.180158         2.798684
 H        -0.314845        -0.297975         3.043218
 H        -1.129712        -1.358731         1.942504
