19
Iteration:  2033
 O         0.680475         0.362625         0.200534
 C        -0.622909         0.459012         0.709836
 C        -1.822157        -0.090969        -0.002524
 C        -2.562933         0.939577         0.957278
 C        -1.313868         1.826980         0.827154
 C        -1.038196         2.526301         2.162696
 O        -1.780661         1.727275         3.239459
 C        -2.116813         0.546977         2.474668
 C        -0.840404        -0.183072         2.142663
 H         0.868406        -0.682102         0.091440
 H        -2.070743         0.224016        -1.006869
 H        -1.993072        -1.146801         0.163375
 H        -3.604638         1.011441         0.731521
 H        -1.294304         2.450674        -0.022659
 H         0.040465         2.434647         2.222679
 H        -1.394882         3.634783         2.282505
 H        -2.838172         0.028956         3.116561
 H        -0.161371         0.120726         2.876603
 H        -1.031682        -1.292796         2.259225
