19
Iteration:  3613charge 0 multiplicity 1
 O         0.654976         0.264290         0.075455
 C        -0.531116         0.427536         0.792213
 C        -1.825001        -0.051426         0.020694
 C        -2.591453         0.923893         0.931770
 C        -1.259608         1.761997         0.953264
 C        -1.131169         2.553426         2.207565
 O        -1.786818         1.766642         3.167599
 C        -2.194939         0.564710         2.457095
 C        -0.784651        -0.166275         2.123312
 H         1.189505        -0.252650         0.634275
 H        -1.790468         0.260240        -1.035146
 H        -1.931219        -1.084960         0.122226
 H        -3.678802         1.184202         0.746437
 H        -1.080342         2.436070         0.045510
 H        -0.144353         2.952826         2.452225
 H        -1.796385         3.530183         2.086448
 H        -2.770994        -0.004315         3.201242
 H        -0.031756         0.079457         2.907144
 H        -0.934868        -1.251090         2.128391
