19
Iteration:  4804
 O         0.732342         0.397006         0.163865
 C        -0.591390         0.478321         0.733793
 C        -1.882080        -0.056016        -0.010042
 C        -2.511278         0.997527         0.970709
 C        -1.233571         1.842312         0.930332
 C        -1.098489         2.511293         2.217686
 O        -1.715402         1.707148         3.161866
 C        -2.208134         0.518850         2.420386
 C        -0.932047        -0.312222         2.158048
 H         1.120587        -0.554898         0.320477
 H        -2.014921         0.342855        -1.111228
 H        -2.202400        -1.169367         0.245174
 H        -3.508364         1.265606         0.661728
 H        -1.121527         2.527111         0.155786
 H        -0.064531         2.634273         2.527559
 H        -1.632090         3.509994         2.124624
 H        -2.929985         0.091759         3.049510
 H        -0.239547        -0.208609         2.960275
 H        -1.081615        -1.348341         1.817020
