19
Iteration:  3127charge 0 multiplicity 1
 O         0.707774         0.411014         0.176610
 C        -0.587637         0.389899         0.751943
 C        -1.970106        -0.152259        -0.074545
 C        -2.573411         0.901770         0.996164
 C        -1.220644         1.787296         0.906297
 C        -1.054181         2.556962         2.224482
 O        -1.871271         1.831312         3.197345
 C        -2.144981         0.546931         2.437662
 C        -0.728698        -0.278250         2.107096
 H         1.278852        -0.189213         0.744236
 H        -1.938923         0.366680        -1.061828
 H        -2.322608        -1.162209        -0.048382
 H        -3.512077         1.341048         0.685497
 H        -1.416599         2.369331        -0.158853
 H         0.047579         2.606284         2.543239
 H        -1.347545         3.557162         2.267420
 H        -2.904066         0.035495         2.990917
 H         0.065080         0.023593         2.752756
 H        -0.873026        -1.337546         2.126192
