19
Iteration:  3261
 O         0.720971         0.346693         0.099732
 C        -0.588755         0.429415         0.740428
 C        -1.876390        -0.072481         0.035034
 C        -2.564388         0.958115         1.013120
 C        -1.232121         1.807649         0.886181
 C        -1.001742         2.492928         2.140064
 O        -1.856026         1.727764         3.144193
 C        -2.204696         0.492860         2.438205
 C        -0.842154        -0.183194         2.170429
 H         1.241312         0.266899         0.968332
 H        -2.099613         0.007538        -1.020003
 H        -1.934515        -1.151842         0.384339
 H        -3.584462         1.402536         0.886545
 H        -1.342468         2.488317        -0.174177
 H         0.007835         2.634498         2.680905
 H        -1.439682         3.439740         2.169720
 H        -3.016322         0.026804         3.092296
 H        -0.234983         0.341738         2.882491
 H        -0.607436        -1.241772         2.148652
