19
Iteration:  1828charge 0 multiplicity 1
 O         0.776044         0.265793         0.165520
 C        -0.533985         0.368328         0.633937
 C        -1.971805         0.035857        -0.013043
 C        -2.503262         0.978219         1.078885
 C        -1.258058         1.782780         0.927252
 C        -1.105816         2.587558         2.226840
 O        -1.945873         1.735535         3.145581
 C        -2.146468         0.490658         2.446132
 C        -0.685575        -0.173798         2.101391
 H         0.969694        -0.805450         0.043373
 H        -2.189993         0.492683        -0.904985
 H        -2.404108        -1.023518        -0.027951
 H        -3.486665         1.513421         1.095408
 H        -1.130776         2.490755         0.119464
 H        -0.048186         2.637552         2.681501
 H        -1.696921         3.605233         2.211489
 H        -3.035572        -0.061922         2.904187
 H         0.088053         0.113104         2.843463
 H        -0.778374        -1.306206         2.249785
