19
Iteration:  4973charge 0 multiplicity 1
 O         0.721109         0.223150         0.192598
 C        -0.598663         0.406261         0.782862
 C        -1.896163        -0.062012        -0.051547
 C        -2.573237         0.941992         0.998007
 C        -1.265942         1.842893         0.868874
 C        -1.230363         2.648911         2.148836
 O        -1.640439         1.692648         3.173313
 C        -2.126016         0.539115         2.429018
 C        -0.837722        -0.223763         2.169756
 H         1.284458         0.412534         0.926936
 H        -1.737655         0.347529        -1.005699
 H        -2.360267        -1.021659        -0.278965
 H        -3.648068         1.115121         0.860001
 H        -1.246457         2.517065        -0.086012
 H        -0.269592         3.031514         2.400996
 H        -1.925318         3.548998         1.963753
 H        -2.906191        -0.011569         3.100342
 H        -0.166358         0.100068         3.020734
 H        -0.863111        -1.309827         2.106020
