19
Iteration:   787charge 0 multiplicity 1
 O         0.780051         0.354918         0.238879
 C        -0.592894         0.345825         0.704925
 C        -1.926650        -0.018070        -0.033461
 C        -2.615513         1.041473         0.988475
 C        -1.180584         1.832760         0.937550
 C        -1.014320         2.450057         2.236893
 O        -1.811221         1.698958         3.179340
 C        -2.260821         0.541395         2.413002
 C        -0.817353        -0.197665         2.092436
 H         0.923200        -0.595213        -0.047615
 H        -1.888899         0.651924        -1.020006
 H        -2.364217        -0.993819        -0.232193
 H        -3.521149         1.507530         0.824925
 H        -1.164293         2.460391         0.074359
 H         0.037992         2.520543         2.693876
 H        -1.515334         3.299383         2.055556
 H        -2.955754         0.087659         3.127912
 H        -0.084688         0.041195         2.915370
 H        -0.959736        -1.278308         1.856935
