19
Iteration:   543
 O         0.671797         0.251971         0.077449
 C        -0.585236         0.398208         0.753023
 C        -1.905877         0.020582         0.040717
 C        -2.482528         1.050058         0.961753
 C        -1.119675         1.862851         0.936876
 C        -1.065208         2.509880         2.301997
 O        -1.928581         1.698823         3.148329
 C        -2.141886         0.482102         2.377560
 C        -0.862014        -0.225397         2.095719
 H         1.318358         0.117719         0.698474
 H        -1.957844         0.256982        -0.989002
 H        -2.225111        -1.061546         0.187711
 H        -3.539306         1.453712         0.939800
 H        -0.930195         2.629786         0.165965
 H        -0.011513         2.573234         2.700026
 H        -1.352661         3.608242         2.205561
 H        -2.914993        -0.112832         2.932498
 H        -0.157177        -0.031789         2.911011
 H        -1.069089        -1.317473         2.028606
