19
Iteration:   855charge 0 multiplicity 1
 O         0.643712         0.149027         0.086801
 C        -0.552017         0.336527         0.669751
 C        -1.832582         0.017845        -0.104705
 C        -2.477583         1.074307         1.059035
 C        -1.215143         1.881816         0.901415
 C        -1.068091         2.543695         2.331109
 O        -1.903406         1.696548         3.201902
 C        -2.195207         0.523193         2.439100
 C        -0.819692        -0.213248         2.137517
 H         1.245545         0.418770         0.760476
 H        -1.788872         0.475890        -1.110412
 H        -2.235671        -1.043653        -0.183485
 H        -3.447007         1.616256         0.842913
 H        -1.209481         2.735643         0.153295
 H         0.016116         2.520312         2.642150
 H        -1.535277         3.509778         2.292704
 H        -2.948048        -0.122997         2.787345
 H        -0.042117         0.224051         2.776954
 H        -0.873652        -1.332513         2.230051
