19
Iteration:  1589
 O         0.783645         0.412104         0.091578
 C        -0.639890         0.349741         0.706959
 C        -1.906350        -0.064148        -0.070287
 C        -2.580482         1.022107         0.951957
 C        -1.214210         1.788452         0.958834
 C        -0.995850         2.559124         2.290933
 O        -1.866733         1.710550         3.231011
 C        -2.224355         0.555955         2.474515
 C        -0.839137        -0.297649         2.080863
 H         1.317020        -0.069197         0.703919
 H        -1.723692         0.251986        -1.133697
 H        -2.352468        -1.117541         0.145069
 H        -3.575041         1.509362         0.651565
 H        -1.087933         2.390124         0.036456
 H         0.123895         2.504595         2.505496
 H        -1.390277         3.591127         2.227056
 H        -2.956054        -0.050409         3.093539
 H        -0.215487        -0.027734         2.901579
 H        -0.902389        -1.393359         1.993200
