19
Iteration:  4730
 O         0.699872         0.046459         0.025507
 C        -0.489346         0.404097         0.701415
 C        -1.846578         0.044909         0.024714
 C        -2.513751         1.034127         0.954205
 C        -1.232552         1.877991         0.957775
 C        -1.186039         2.503719         2.341408
 O        -1.909763         1.744676         3.275643
 C        -2.220753         0.481304         2.408638
 C        -0.736920        -0.159795         2.081163
 H         1.176133         0.780063        -0.240974
 H        -1.809202         0.456773        -0.980352
 H        -2.098946        -0.939872         0.017762
 H        -3.422509         1.626547         0.766252
 H        -0.948244         2.642399         0.272726
 H        -0.188088         2.750777         2.759256
 H        -1.727937         3.569656         2.272340
 H        -2.964966        -0.042749         2.913885
 H         0.062216         0.007228         2.832728
 H        -0.905485        -1.249881         1.950700
