19
Iteration:   206
 O         0.761243         0.189245         0.243299
 C        -0.583936         0.466591         0.723926
 C        -1.854945         0.012232        -0.093185
 C        -2.609207         0.899214         0.937105
 C        -1.187744         1.843655         0.947327
 C        -0.996188         2.513966         2.271857
 O        -1.749967         1.709475         3.186634
 C        -2.233259         0.537099         2.414096
 C        -1.007274        -0.172177         2.064223
 H         1.229487         1.023003         0.224577
 H        -2.124599         0.443956        -1.014119
 H        -2.016094        -1.151954        -0.140154
 H        -3.600934         1.272625         0.879367
 H        -1.043289         2.533892         0.135805
 H         0.058641         2.591211         2.627190
 H        -1.391113         3.503601         2.255729
 H        -3.027031         0.071122         2.938684
 H        -0.283164        -0.125553         2.888493
 H        -1.200945        -1.246635         2.155022
