19
Iteration:  1490charge 0 multiplicity 1
 O         0.590608         0.236981        -0.007300
 C        -0.520832         0.335862         0.786174
 C        -1.781643         0.064432         0.100119
 C        -2.487903         1.000321         0.950904
 C        -1.212999         1.904646         0.967147
 C        -1.095473         2.520307         2.314933
 O        -1.938531         1.702820         3.113851
 C        -2.169610         0.498580         2.388535
 C        -0.800084        -0.194716         2.152736
 H         1.409538         0.221984         0.480796
 H        -1.579185         0.405072        -0.894594
 H        -2.227431        -1.004993        -0.088035
 H        -3.580582         1.284168         0.904444
 H        -1.280010         2.712184         0.240545
 H         0.005667         2.429149         2.594719
 H        -1.261935         3.528044         2.343263
 H        -2.917809        -0.248578         2.828296
 H        -0.128389        -0.112700         2.943523
 H        -0.951388        -1.294957         2.021546
