19
Iteration:  2041charge 0 multiplicity 1
 O         0.698351         0.381742         0.185926
 C        -0.590960         0.421966         0.742107
 C        -1.879563        -0.066379         0.022168
 C        -2.559727         0.936275         1.055384
 C        -1.293184         1.840931         0.851734
 C        -1.060634         2.529511         2.140751
 O        -1.777275         1.717939         3.146856
 C        -2.128551         0.549544         2.426011
 C        -0.831690        -0.217661         2.170891
 H         0.877739        -0.605987         0.020828
 H        -2.058578         0.168296        -1.078581
 H        -2.206918        -1.041201         0.162534
 H        -3.573345         1.269082         0.834903
 H        -1.149966         2.343062        -0.100892
 H        -0.078591         2.609645         2.621655
 H        -1.543000         3.599364         2.128371
 H        -2.914145         0.036622         3.001031
 H        -0.111184        -0.051468         3.055580
 H        -0.737424        -1.334295         2.134962
