19
Iteration:  4226
 O         0.725196         0.301557         0.193930
 C        -0.591509         0.388180         0.728490
 C        -1.820742        -0.033667        -0.007703
 C        -2.614142         0.974442         0.941257
 C        -1.265660         1.817708         0.922231
 C        -0.969044         2.412052         2.303612
 O        -1.919727         1.750535         3.211792
 C        -2.185349         0.568093         2.373554
 C        -0.796211        -0.215583         2.115179
 H         0.646280         0.828457        -0.728063
 H        -1.983540         0.491374        -1.074939
 H        -2.004744        -1.119661         0.047886
 H        -3.620882         1.423384         0.885611
 H        -0.954763         2.504770         0.205432
 H         0.090282         2.293543         2.687181
 H        -1.203989         3.641017         2.325393
 H        -2.994208        -0.030806         2.886573
 H         0.040385        -0.022683         2.800639
 H        -0.886461        -1.272278         1.973283
