19
Iteration:  4362
 O         0.739659         0.333763         0.225048
 C        -0.607800         0.496226         0.692732
 C        -1.788749        -0.020646        -0.042018
 C        -2.554663         0.951177         1.014892
 C        -1.325379         1.851089         0.930714
 C        -0.943816         2.390088         2.231820
 O        -1.863840         1.693973         3.177275
 C        -2.248458         0.557678         2.455666
 C        -0.858126        -0.220655         2.112336
 H         0.762235         0.506260        -0.682251
 H        -2.071636         0.325545        -1.063162
 H        -1.934559        -1.182586        -0.063788
 H        -3.496670         1.384963         0.725498
 H        -1.385135         2.630074         0.104071
 H         0.076667         2.024200         2.624084
 H        -1.117570         3.514520         2.339001
 H        -3.046688         0.113618         3.024962
 H        -0.030984         0.019929         2.863834
 H        -0.739049        -1.329724         1.958074
