19
Iteration:  2093
 O         0.684463         0.217131         0.039022
 C        -0.543716         0.437159         0.702824
 C        -1.820900        -0.080624         0.029779
 C        -2.544593         0.948969         1.026581
 C        -1.252091         1.867246         0.934636
 C        -1.145620         2.598390         2.223422
 O        -1.841541         1.746914         3.193363
 C        -2.146551         0.526602         2.471335
 C        -0.819294        -0.144430         2.140712
 H         0.919568        -0.588290         0.422313
 H        -1.846170         0.375045        -1.018693
 H        -2.050952        -1.255007        -0.021160
 H        -3.500039         1.275327         0.569384
 H        -1.253112         2.352640        -0.078068
 H        -0.076260         2.648001         2.595392
 H        -1.556010         3.542376         2.295004
 H        -2.757212        -0.069935         3.161300
 H        -0.065198         0.192762         2.964293
 H        -0.922000        -1.222939         2.051454
