19
Iteration:   432
 O         0.545592         0.093152         0.066309
 C        -0.576390         0.426159         0.743634
 C        -1.759459         0.125836        -0.059976
 C        -2.429697         1.012742         0.940219
 C        -1.263372         1.918811         0.992419
 C        -1.044722         2.509354         2.353232
 O        -1.980562         1.787590         3.094272
 C        -2.131418         0.445052         2.364209
 C        -0.787340        -0.282807         2.213499
 H         1.514902         0.275681         0.496627
 H        -1.838818         0.481932        -1.042796
 H        -2.046262        -0.950185        -0.057489
 H        -3.451998         1.300738         0.861759
 H        -1.095158         2.663633         0.217759
 H        -0.118499         2.420767         2.760702
 H        -1.294890         3.614039         2.482412
 H        -2.851208         0.009702         2.950977
 H        -0.112049         0.124071         2.975690
 H        -0.743172        -1.389955         2.221496
