19
Iteration:  1349charge 0 multiplicity 1
 O         0.651068         0.096506         0.056889
 C        -0.541094         0.473606         0.685041
 C        -1.850715         0.063016        -0.049807
 C        -2.480521         0.993843         0.920717
 C        -1.280235         1.909111         0.879389
 C        -1.034535         2.417969         2.338111
 O        -1.974687         1.707273         3.201541
 C        -2.107716         0.477915         2.490381
 C        -0.806828        -0.081916         2.172037
 H         1.358992         0.313240         0.553888
 H        -1.946210         0.450560        -1.012223
 H        -2.120590        -1.034226        -0.165359
 H        -3.511089         1.318518         0.727627
 H        -1.216134         2.762679         0.246845
 H        -0.023887         2.403140         2.742081
 H        -1.344288         3.537865         2.473237
 H        -2.954625        -0.094143         2.995213
 H        -0.064625         0.158815         2.989246
 H        -0.680457        -1.216883         2.090449
