19
Iteration:  4431charge 0 multiplicity 1
 O         0.694559         0.077454         0.118615
 C        -0.536174         0.395401         0.741850
 C        -1.854008         0.046601        -0.030701
 C        -2.493330         1.027936         0.952151
 C        -1.200117         1.839807         0.988644
 C        -1.258385         2.694512         2.340408
 O        -1.855046         1.621030         3.213427
 C        -2.146441         0.580080         2.392664
 C        -0.733816        -0.253285         2.087906
 H         0.857570         0.834808        -0.627493
 H        -1.811916         0.483745        -1.051565
 H        -2.215673        -1.014284        -0.136541
 H        -3.502263         1.402393         0.832418
 H        -1.172435         2.676555         0.186187
 H        -0.149132         2.935916         2.543335
 H        -1.934290         3.469571         2.487192
 H        -2.929448        -0.048137         2.895637
 H         0.167933        -0.036565         2.771035
 H        -0.965286        -1.356647         2.130789
