19
Iteration:  1638
 O         0.680920         0.238993         0.140926
 C        -0.543980         0.443629         0.744079
 C        -1.830390        -0.008581        -0.063189
 C        -2.541231         0.956669         0.924183
 C        -1.282372         1.885262         0.906611
 C        -1.071886         2.490793         2.390987
 O        -1.861022         1.746908         3.208038
 C        -2.123493         0.483381         2.427488
 C        -0.839304        -0.143140         2.120588
 H         0.732410        -0.637694        -0.333533
 H        -1.875681         0.573484        -1.006878
 H        -1.993414        -1.053910        -0.165221
 H        -3.559904         1.217541         0.764140
 H        -1.238534         2.491685        -0.008708
 H         0.001991         2.488175         2.545048
 H        -1.460023         3.491848         2.333527
 H        -2.894529        -0.046173         2.967765
 H        -0.015555         0.148733         2.811666
 H        -0.916592        -1.230862         2.118813
