19
Iteration:  3826
 O         0.655369         0.280355         0.174716
 C        -0.567232         0.415432         0.774623
 C        -1.807312         0.025189         0.050216
 C        -2.510262         1.010236         0.956409
 C        -1.234355         1.846027         0.881930
 C        -1.032888         2.547131         2.229901
 O        -1.900610         1.683450         3.167455
 C        -2.156542         0.502334         2.415966
 C        -0.812517        -0.234858         2.158022
 H         0.402421        -0.106986        -0.638872
 H        -1.707983         0.149839        -1.012125
 H        -2.205478        -1.063443         0.081075
 H        -3.450393         1.491763         0.767312
 H        -1.063584         2.536276         0.021201
 H         0.036793         2.533985         2.555277
 H        -1.512122         3.498351         2.278144
 H        -2.969023        -0.080169         2.852569
 H        -0.195653         0.116405         2.944091
 H        -0.850059        -1.323905         2.091300
