19
Iteration:  2790charge 0 multiplicity 1
 O         0.655900         0.312075         0.128694
 C        -0.582072         0.405955         0.775130
 C        -1.782209        -0.034240         0.044490
 C        -2.592137         0.911901         0.972623
 C        -1.333862         1.853538         0.896464
 C        -1.109130         2.526765         2.217726
 O        -1.839978         1.782138         3.163915
 C        -2.117594         0.534392         2.408293
 C        -0.736967        -0.230841         2.122015
 H         0.957599        -0.412070         0.576946
 H        -1.863118         0.233283        -1.062608
 H        -2.120811        -1.085938         0.100953
 H        -3.550251         1.319109         0.990127
 H        -1.073797         2.465017        -0.028857
 H        -0.036100         2.529328         2.517212
 H        -1.544683         3.679024         2.200822
 H        -2.825592         0.027719         2.995148
 H         0.066735         0.055936         2.809208
 H        -0.912715        -1.413132         1.989111
