19
Iteration:  1835charge 0 multiplicity 1
 O         0.788885         0.311308         0.147430
 C        -0.579326         0.341071         0.691730
 C        -1.930803        -0.001865         0.036067
 C        -2.547881         1.027736         1.054597
 C        -1.226260         1.750935         0.897217
 C        -1.071360         2.544113         2.219702
 O        -1.935554         1.728480         3.187501
 C        -2.189565         0.559006         2.419208
 C        -0.719257        -0.184730         2.103041
 H         1.037902        -0.653786        -0.063201
 H        -2.100838         0.501482        -1.053333
 H        -2.330804        -1.012893        -0.189928
 H        -3.568793         1.401754         0.831398
 H        -1.365336         2.322798        -0.053103
 H        -0.143767         2.676342         2.776834
 H        -1.523438         3.467164         2.322030
 H        -2.728239        -0.127277         3.112717
 H         0.153120         0.117609         2.659146
 H        -0.801445        -1.250772         2.254587
