19
Iteration:  3899charge 0 multiplicity 1
 O         0.669913         0.204569         0.104364
 C        -0.565457         0.437641         0.757520
 C        -1.848437         0.022374        -0.026932
 C        -2.504277         1.028249         0.974141
 C        -1.303393         1.910534         0.926280
 C        -1.007669         2.580993         2.301381
 O        -1.848137         1.655349         3.095760
 C        -2.135326         0.495769         2.397324
 C        -0.900571        -0.279364         2.218146
 H         1.263602         0.793139         0.431870
 H        -1.853505         0.219709        -1.087544
 H        -2.062282        -0.952212         0.004510
 H        -3.523635         1.242922         0.718933
 H        -1.237484         2.393232         0.049323
 H        -0.062316         2.593408         2.760489
 H        -1.525844         3.600207         2.321665
 H        -2.782973        -0.123642         3.048204
 H         0.029171        -0.025633         2.821008
 H        -1.107427        -1.349322         2.163535
