19
Iteration:  3860
 O         0.752484         0.232150         0.174833
 C        -0.593985         0.441382         0.674946
 C        -1.852434         0.025225        -0.045378
 C        -2.518060         1.022894         0.986258
 C        -1.171146         1.841489         0.909021
 C        -1.126152         2.556159         2.225119
 O        -1.872444         1.656533         3.201193
 C        -2.094714         0.510453         2.507169
 C        -0.883323        -0.192210         2.069315
 H         0.993109        -0.734080         0.497791
 H        -2.092040         0.497557        -1.013372
 H        -2.280368        -1.050298         0.161941
 H        -3.513888         1.473054         0.921073
 H        -1.385224         2.496495        -0.041932
 H        -0.137860         2.975391         2.592194
 H        -1.733119         3.435238         2.172805
 H        -2.896186         0.006097         3.022377
 H        -0.090699         0.019719         2.746092
 H        -0.952921        -1.293535         2.019225
