19
Iteration:   960
 O         0.782161         0.264545         0.161311
 C        -0.612929         0.448534         0.692503
 C        -1.867228         0.023892        -0.084433
 C        -2.567074         1.015508         1.015854
 C        -1.271573         1.870018         0.965678
 C        -1.028959         2.499617         2.285784
 O        -1.842213         1.713628         3.187568
 C        -2.136953         0.514461         2.382643
 C        -0.911372        -0.243150         2.093343
 H         0.998155        -0.731866         0.514781
 H        -1.903304         0.294895        -1.179863
 H        -2.187590        -0.942013         0.048595
 H        -3.553101         1.340052         0.890593
 H        -1.220465         2.569583         0.167119
 H         0.017166         2.543444         2.514191
 H        -1.315418         3.657965         2.214323
 H        -2.834383        -0.108525         2.981270
 H        -0.149815        -0.010364         2.859089
 H        -1.029201        -1.296321         2.202034
