19
Iteration:  2298charge 0 multiplicity 1
 O         0.642898         0.261992         0.164906
 C        -0.616362         0.446381         0.717985
 C        -1.936697        -0.134510        -0.014409
 C        -2.504531         0.972179         1.037522
 C        -1.247322         1.852468         0.869285
 C        -1.063512         2.542348         2.252531
 O        -1.916647         1.767387         3.118613
 C        -2.049108         0.494358         2.445559
 C        -0.722552        -0.200487         2.111239
 H         1.217166         0.420133         0.834502
 H        -2.086217         0.360354        -0.917446
 H        -2.239530        -1.128631         0.031330
 H        -3.592457         1.411161         0.933598
 H        -1.151546         2.500016        -0.132413
 H        -0.118615         2.536816         2.719852
 H        -1.461698         3.617732         2.085651
 H        -2.719939        -0.089002         3.109254
 H         0.116821         0.059996         2.754933
 H        -0.800424        -1.323928         2.016007
