19
Iteration:  2058
 O         0.705391         0.395488         0.141651
 C        -0.582981         0.357774         0.804351
 C        -2.006766        -0.032199         0.108962
 C        -2.503119         1.037316         1.001416
 C        -1.135265         1.740319         0.912481
 C        -1.148778         2.641345         2.167775
 O        -1.856434         1.750702         3.072149
 C        -2.125706         0.428512         2.453444
 C        -0.761726        -0.276355         2.117496
 H         1.094258        -0.488296         0.016385
 H        -1.941331         0.345182        -0.889713
 H        -2.351339        -1.222580         0.008261
 H        -3.528848         1.531229         0.942457
 H        -1.155531         2.389843        -0.024662
 H        -0.047654         2.845260         2.310880
 H        -1.706410         3.528271         2.126918
 H        -2.807659        -0.013196         3.186978
 H         0.045826        -0.136413         2.859043
 H        -0.904855        -1.362921         2.263116
