19
Iteration:   619
 O         0.688857         0.161926         0.111014
 C        -0.579202         0.410534         0.793992
 C        -1.862420         0.115972         0.057996
 C        -2.493670         1.071312         0.969282
 C        -1.251228         1.890619         0.933635
 C        -1.091249         2.534326         2.267038
 O        -1.859854         1.682405         3.137320
 C        -2.165210         0.478211         2.353339
 C        -0.848185        -0.281779         2.062305
 H         1.422803         0.359233         0.851933
 H        -1.838435         0.397411        -0.968711
 H        -2.347425        -0.906751         0.112671
 H        -3.578365         1.440746         0.957015
 H        -0.851291         2.535785         0.112227
 H         0.064392         2.623165         2.488107
 H        -1.505481         3.509174         2.349154
 H        -2.817435        -0.181227         2.990264
 H        -0.133721        -0.044880         2.846257
 H        -1.082239        -1.367477         2.041853
