19
Iteration:   903charge 0 multiplicity 1
 O         0.735987         0.161030         0.014923
 C        -0.589400         0.418670         0.718399
 C        -1.856979        -0.015344        -0.004943
 C        -2.536785         1.037680         0.975811
 C        -1.174458         1.844221         0.904976
 C        -1.059914         2.533855         2.425284
 O        -1.893578         1.728091         3.210425
 C        -2.241898         0.570813         2.411403
 C        -0.820470        -0.269111         2.108624
 H         1.315986         0.667301         0.578329
 H        -1.786855         0.458587        -0.933803
 H        -2.334411        -0.975959        -0.095792
 H        -3.498871         1.443231         0.589427
 H        -1.102964         2.418918        -0.012933
 H        -0.057989         2.463867         2.720883
 H        -1.459483         3.627697         2.290547
 H        -3.029326        -0.009043         2.978280
 H        -0.121665         0.047914         2.869227
 H        -0.938574        -1.315638         1.946438
