19
Iteration:  3126charge 0 multiplicity 1
 O         0.703699         0.416751         0.178516
 C        -0.594767         0.387323         0.754110
 C        -1.968315        -0.154646        -0.075464
 C        -2.572755         0.905586         0.992127
 C        -1.218734         1.787084         0.897732
 C        -1.047786         2.550499         2.234060
 O        -1.870312         1.825370         3.193289
 C        -2.137921         0.552826         2.436198
 C        -0.726755        -0.272818         2.109887
 H         1.284183        -0.229840         0.771863
 H        -1.982718         0.341221        -1.059184
 H        -2.311515        -1.145193        -0.059476
 H        -3.531273         1.317031         0.701553
 H        -1.427812         2.345928        -0.143534
 H         0.030122         2.598239         2.544329
 H        -1.346893         3.582201         2.254321
 H        -2.882875         0.020771         2.966633
 H         0.037746         0.054468         2.785431
 H        -0.893268        -1.312706         2.118713
