19
Iteration:  1602
 O         0.715520         0.441326         0.123802
 C        -0.536394         0.405832         0.698627
 C        -1.967410        -0.039897         0.041065
 C        -2.469466         0.997552         1.002732
 C        -1.163731         1.777783         0.860268
 C        -1.026388         2.427667         2.278480
 O        -1.886392         1.716274         3.168357
 C        -2.169858         0.508549         2.409517
 C        -0.909093        -0.222942         2.115700
 H         1.310846        -0.223677         0.597421
 H        -2.225227         0.343083        -1.046985
 H        -2.372370        -1.080077         0.020974
 H        -3.400163         1.534784         0.930537
 H        -0.946731         2.444898         0.020877
 H        -0.088782         2.630790         2.870064
 H        -1.438074         3.394100         2.227425
 H        -2.936891        -0.025721         2.917538
 H        -0.070165        -0.022743         2.807332
 H        -1.083397        -1.257674         2.111702
