19
Iteration:  2395
 O         0.675236         0.204834         0.019536
 C        -0.541995         0.371602         0.673506
 C        -1.781821        -0.040013        -0.011008
 C        -2.557810         0.910807         1.058070
 C        -1.300015         1.825838         0.892372
 C        -1.063235         2.513769         2.229120
 O        -1.971437         1.813610         3.177746
 C        -2.093858         0.515684         2.505002
 C        -0.780196        -0.127279         2.156613
 H         1.310947         0.528466         0.628212
 H        -1.987127         0.389430        -0.962930
 H        -2.058476        -1.093018         0.108894
 H        -3.674083         1.207902         0.887927
 H        -1.115164         2.648101         0.106971
 H         0.008958         2.519275         2.629922
 H        -1.465855         3.483066         2.263652
 H        -2.784349        -0.103496         3.111094
 H        -0.135034         0.232935         2.873855
 H        -0.831933        -1.246679         2.156046
