19
Iteration:   749charge 0 multiplicity 1
 O         0.640373         0.262313         0.137547
 C        -0.583814         0.423018         0.836638
 C        -1.864526        -0.008181         0.006987
 C        -2.499407         1.051228         0.955342
 C        -1.221639         1.861443         0.926028
 C        -1.003979         2.476909         2.310255
 O        -1.922012         1.721256         3.095799
 C        -2.163492         0.552663         2.429184
 C        -0.772689        -0.247299         2.125007
 H         0.746745        -0.526397        -0.242881
 H        -1.643794         0.486818        -0.909124
 H        -2.109849        -1.134986        -0.064410
 H        -3.599095         1.486615         0.834789
 H        -0.997081         2.707600         0.207262
 H        -0.007023         2.577042         2.738532
 H        -1.514370         3.585427         2.234734
 H        -3.023539        -0.076624         2.833008
 H         0.067849        -0.353634         2.799315
 H        -0.994922        -1.293082         1.777953
