19
Iteration:  1032
 O         0.676651         0.311996         0.112888
 C        -0.570801         0.431359         0.713093
 C        -1.827280         0.011943         0.023811
 C        -2.570217         1.030116         0.895817
 C        -1.210356         1.780052         0.941075
 C        -1.007564         2.467939         2.352295
 O        -1.926291         1.761333         3.234793
 C        -2.175248         0.502102         2.420806
 C        -0.831513        -0.180910         2.050914
 H         0.964282        -0.711446         0.006694
 H        -1.821012         0.275276        -1.012672
 H        -2.077503        -1.155538         0.064079
 H        -3.599983         1.385360         0.824596
 H        -0.855834         2.463110         0.180480
 H         0.092619         2.567886         2.614997
 H        -1.250247         3.439963         2.141135
 H        -2.979181        -0.087361         2.920670
 H        -0.078728        -0.051499         2.829947
 H        -0.983235        -1.291237         2.107866
