19
Iteration:   751charge 0 multiplicity 1
 O         0.647664         0.277046         0.156047
 C        -0.584008         0.417615         0.826461
 C        -1.885159        -0.012264        -0.000557
 C        -2.499768         1.041625         0.939639
 C        -1.213021         1.888562         0.906580
 C        -1.012967         2.481042         2.309766
 O        -1.916642         1.718953         3.108861
 C        -2.154105         0.545734         2.433691
 C        -0.780625        -0.247258         2.149212
 H         0.682074        -0.607321        -0.279676
 H        -1.697006         0.472074        -1.024755
 H        -2.138739        -1.096787        -0.124135
 H        -3.577236         1.438577         0.839818
 H        -1.009106         2.701966         0.195599
 H         0.021559         2.611273         2.730236
 H        -1.398354         3.487426         2.191451
 H        -2.998673        -0.128150         2.884473
 H         0.054882        -0.424636         2.847298
 H        -0.975879        -1.255802         1.741604
