19
Iteration:  4177charge 0 multiplicity 1
 O         0.754481         0.239545         0.253113
 C        -0.544972         0.413255         0.704741
 C        -1.974988         0.019212         0.003684
 C        -2.527974         0.992395         0.932812
 C        -1.201062         1.772083         0.920004
 C        -1.127865         2.481649         2.280772
 O        -1.854411         1.715790         3.202985
 C        -2.151915         0.560960         2.454750
 C        -0.792470        -0.215311         1.998878
 H         1.049662         0.925296        -0.292344
 H        -1.957192         0.336441        -0.985964
 H        -2.382245        -1.007646         0.019958
 H        -3.538821         1.470535         0.677751
 H        -1.086313         2.579765         0.046790
 H        -0.075955         2.600543         2.572286
 H        -1.667870         3.520393         2.340842
 H        -2.829719        -0.063513         3.043866
 H         0.049195        -0.078705         2.729230
 H        -0.997537        -1.356862         2.021916
