19
Iteration:   727charge 0 multiplicity 1
 O         0.719962         0.267323         0.032533
 C        -0.523257         0.381438         0.724933
 C        -1.911721         0.051405        -0.054938
 C        -2.457569         1.014950         0.967122
 C        -1.107976         1.856773         0.912034
 C        -1.055020         2.531075         2.345213
 O        -1.961399         1.732946         3.211606
 C        -2.207858         0.471694         2.411750
 C        -0.884734        -0.206966         2.203664
 H         0.918379        -0.792536         0.004258
 H        -2.093921         0.347886        -1.073160
 H        -2.244809        -1.041596         0.129312
 H        -3.518369         1.478395         0.777285
 H        -1.027044         2.571392         0.008421
 H        -0.048801         2.488020         2.744988
 H        -1.316180         3.667284         2.177062
 H        -2.894447        -0.208357         2.998739
 H        -0.254024         0.107922         3.023078
 H        -0.774185        -1.312549         2.197151
