19
Iteration:  2978charge 0 multiplicity 1
 O         0.755208         0.459705         0.164604
 C        -0.634251         0.377831         0.766099
 C        -1.954847        -0.037123         0.003226
 C        -2.506001         0.975802         1.031113
 C        -1.241230         1.769358         0.876095
 C        -1.012728         2.513196         2.166093
 O        -1.910996         1.797347         3.080699
 C        -2.166257         0.468974         2.432332
 C        -0.757832        -0.292843         2.274661
 H         0.843934        -0.379333        -0.114224
 H        -1.993925         0.275413        -1.056275
 H        -2.044293        -1.117828        -0.095151
 H        -3.514789         1.408976         0.961560
 H        -1.436085         2.293398         0.005479
 H        -0.018872         2.376759         2.490502
 H        -1.333376         3.653020         2.311504
 H        -2.973133         0.010912         3.097150
 H         0.227981         0.038623         2.677062
 H        -0.880753        -1.455298         2.216308
