19
Iteration:  4206charge 0 multiplicity 1
 O         0.635288         0.318958         0.204696
 C        -0.565377         0.477475         0.761699
 C        -1.890836        -0.028871        -0.040708
 C        -2.479708         0.965510         0.979539
 C        -1.215496         1.865469         0.867548
 C        -0.946088         2.447006         2.272906
 O        -1.904770         1.732569         3.098152
 C        -2.156323         0.416227         2.465091
 C        -0.883740        -0.231313         2.154411
 H         0.872817         1.108550        -0.459811
 H        -1.564589         0.360577        -1.080259
 H        -2.201562        -1.079944         0.023000
 H        -3.504765         1.442302         0.784327
 H        -1.311278         2.435169         0.024123
 H         0.158560         2.309927         2.480547
 H        -1.177224         3.419876         2.671428
 H        -2.961842        -0.051241         3.107485
 H        -0.258334         0.123545         2.922965
 H        -0.985941        -1.325998         2.168780
