19
Iteration:   845charge 0 multiplicity 1
 O         0.701601         0.175981         0.074156
 C        -0.616339         0.413939         0.692448
 C        -1.843225         0.058451        -0.097097
 C        -2.448907         1.041414         0.989491
 C        -1.194688         1.854720         0.949215
 C        -1.091340         2.489696         2.245605
 O        -1.906223         1.678161         3.254530
 C        -2.161265         0.518845         2.442012
 C        -0.879972        -0.161186         2.130999
 H         1.501541         0.140488         0.691045
 H        -2.114378         0.408998        -1.053765
 H        -2.147891        -1.033845         0.023942
 H        -3.510334         1.488562         0.892365
 H        -1.030022         2.365893        -0.063917
 H        -0.067444         2.564664         2.621794
 H        -1.365505         3.562653         2.341972
 H        -2.917757         0.009518         2.993702
 H        -0.100279         0.010768         2.864445
 H        -1.041846        -1.268753         2.205570
