19
Iteration:   584
 O         0.626210         0.084188         0.006261
 C        -0.559451         0.375262         0.664425
 C        -1.788388         0.054697        -0.053142
 C        -2.502299         0.984258         0.966945
 C        -1.175611         1.867885         1.035962
 C        -1.107408         2.496920         2.376217
 O        -1.952525         1.751222         3.192443
 C        -2.136042         0.533296         2.415642
 C        -0.864816        -0.089790         2.107993
 H         1.440977         0.352934         0.645749
 H        -1.702604         0.537110        -0.988984
 H        -2.174878        -1.006819        -0.079146
 H        -3.516665         1.261732         0.717775
 H        -0.851712         2.485910         0.196346
 H        -0.056396         2.441981         2.881884
 H        -1.413520         3.458215         2.422673
 H        -2.801891        -0.077630         2.933585
 H        -0.069270         0.201511         2.771367
 H        -0.928411        -1.187864         2.156271
