19
Iteration:  3181
 O         0.666380         0.098770         0.074061
 C        -0.591274         0.382733         0.733258
 C        -1.775702        -0.036471        -0.018033
 C        -2.561893         1.086090         0.959637
 C        -1.283371         1.875907         0.962091
 C        -1.240199         2.599031         2.244263
 O        -1.828391         1.737690         3.216605
 C        -2.110427         0.478182         2.420633
 C        -0.750373        -0.177998         2.118692
 H         1.336246         0.462517         0.697395
 H        -1.855877         0.131095        -1.108944
 H        -2.070024        -1.008425         0.215733
 H        -3.549238         1.209067         0.556672
 H        -0.953298         2.498860        -0.055997
 H        -0.186561         2.788204         2.554004
 H        -1.884395         3.510927         2.320911
 H        -2.780821        -0.078788         3.028139
 H        -0.054579         0.304998         2.773906
 H        -0.548220        -1.188677         2.330131
