19
Iteration:  3868charge 0 multiplicity 1
 O         0.698148         0.239548         0.177014
 C        -0.586437         0.448582         0.686759
 C        -1.870751         0.046949        -0.044916
 C        -2.483902         1.039423         1.055101
 C        -1.163811         1.782504         0.878343
 C        -1.112692         2.549009         2.167356
 O        -1.875004         1.695044         3.277147
 C        -2.161531         0.491583         2.455855
 C        -0.847080        -0.199796         2.057659
 H         1.215751        -0.493458         0.792547
 H        -2.004042         0.601501        -0.978899
 H        -2.098303        -1.028324        -0.147415
 H        -3.452231         1.490550         0.896048
 H        -1.217078         2.308996        -0.066929
 H        -0.206427         2.816241         2.626097
 H        -1.803083         3.438262         1.939814
 H        -2.851857        -0.179312         2.999421
 H         0.038579        -0.020784         2.668217
 H        -0.969557        -1.275064         1.946656
