19
Iteration:   440charge 0 multiplicity 1
 O         0.578938         0.125307         0.005120
 C        -0.533110         0.425077         0.825057
 C        -1.718762         0.067135        -0.025598
 C        -2.465741         1.000833         0.964607
 C        -1.227923         1.892321         0.992816
 C        -1.093893         2.491127         2.316706
 O        -1.922717         1.764448         3.140090
 C        -2.224080         0.484393         2.391486
 C        -0.823009        -0.245123         2.151755
 H         1.571362         0.269829         0.403318
 H        -1.831110         0.627598        -1.065824
 H        -2.110070        -0.935981        -0.055716
 H        -3.389464         1.464964         0.623205
 H        -1.112346         2.661829         0.201676
 H         0.083784         2.389091         2.580571
 H        -1.383713         3.463514         2.393091
 H        -3.119215         0.111295         2.944384
 H        -0.298999         0.153018         3.038263
 H        -0.773351        -1.328516         2.218883
