19
Iteration:  4924charge 0 multiplicity 1
 O         0.765538         0.324336         0.174570
 C        -0.586886         0.381640         0.705952
 C        -1.890819        -0.066996        -0.001630
 C        -2.508223         0.925508         0.966354
 C        -1.243481         1.796429         0.874745
 C        -1.050850         2.572881         2.281987
 O        -1.943363         1.791193         3.151454
 C        -2.137712         0.523226         2.471635
 C        -0.780276        -0.179082         2.177838
 H         0.607601        -0.048873        -0.765164
 H        -2.258875         0.149871        -1.090195
 H        -2.098958        -1.244440         0.045268
 H        -3.512080         1.307932         0.783189
 H        -1.142159         2.312824        -0.019887
 H        -0.067227         2.363234         2.744512
 H        -1.239848         3.597796         2.231819
 H        -2.891546         0.021639         2.979587
 H        -0.108524         0.043130         2.983244
 H        -0.954367        -1.277964         2.186956
