19
Iteration:  2659charge 0 multiplicity 1
 O         0.691116         0.410037         0.029822
 C        -0.535360         0.392972         0.794339
 C        -1.908087        -0.080956         0.108259
 C        -2.543208         0.983095         1.007303
 C        -1.210983         1.772786         0.870331
 C        -1.081007         2.601763         2.189926
 O        -1.918331         1.727742         3.140526
 C        -2.159916         0.531314         2.501228
 C        -0.756398        -0.267062         2.134845
 H         1.312243        -0.292942         0.505192
 H        -1.872285         0.015751        -1.051408
 H        -2.148013        -1.203798         0.083542
 H        -3.529272         1.425842         1.033268
 H        -1.204626         2.266243        -0.196521
 H        -0.059783         2.720353         2.645682
 H        -1.507017         3.564528         2.174157
 H        -2.953091         0.019838         3.010163
 H        -0.130418        -0.035257         2.959515
 H        -0.828941        -1.373942         1.845500
