19
Iteration:   536charge 0 multiplicity 1
 O         0.688949         0.245284         0.088354
 C        -0.573037         0.407028         0.727904
 C        -1.848723        -0.027916        -0.008146
 C        -2.595472         1.036079         0.944860
 C        -1.195651         1.855770         0.961503
 C        -0.972026         2.540789         2.298747
 O        -1.899740         1.735804         3.233928
 C        -2.210871         0.538167         2.366107
 C        -0.861845        -0.280298         2.054478
 H         1.404864         0.069266         0.685422
 H        -1.783199         0.342425        -1.092067
 H        -2.017264        -1.055402         0.178309
 H        -3.601877         1.457794         0.794736
 H        -0.889686         2.515759         0.129422
 H        -0.010858         2.647585         2.716293
 H        -1.568663         3.513262         2.303196
 H        -2.801409        -0.171323         3.037063
 H        -0.130901         0.020153         2.848740
 H        -1.036179        -1.362779         2.103752
