19
Iteration:  1747
 O         0.611392         0.292233         0.189614
 C        -0.580626         0.426162         0.739419
 C        -1.865950        -0.036084        -0.001012
 C        -2.515692         0.981809         0.989260
 C        -1.227295         1.810920         0.896377
 C        -1.075485         2.499592         2.234938
 O        -1.875719         1.828419         3.151119
 C        -2.122204         0.446662         2.431848
 C        -0.761671        -0.308415         2.049803
 H         1.268081         0.979873         0.710315
 H        -2.084991         0.397221        -1.144409
 H        -2.390973        -1.020402         0.060468
 H        -3.501827         1.388083         1.114192
 H        -1.230429         2.505195         0.037612
 H         0.084509         2.411736         2.558854
 H        -1.166581         3.560381         2.158492
 H        -2.842623        -0.158030         3.035962
 H        -0.066287         0.022679         2.808639
 H        -0.949567        -1.358573         2.129269
