19
Iteration:   895
 O         0.679687         0.122447         0.043300
 C        -0.579543         0.420894         0.698290
 C        -1.827126         0.020825         0.032433
 C        -2.443893         1.061113         1.014536
 C        -1.174645         1.919642         0.866220
 C        -1.073901         2.464107         2.316166
 O        -1.940606         1.703123         3.209544
 C        -2.194754         0.519958         2.428256
 C        -0.865520        -0.223029         2.116123
 H         1.374022         0.763994         0.444698
 H        -1.731686         0.463789        -1.046577
 H        -2.060629        -1.003738        -0.114147
 H        -3.322873         1.616979         0.991559
 H        -1.391084         2.563876         0.041600
 H        -0.074440         2.519818         2.779581
 H        -1.467264         3.479484         2.331051
 H        -3.030523         0.027852         2.976072
 H        -0.173710        -0.049959         2.979588
 H        -0.931951        -1.293904         1.915404
