19
Iteration:  2583charge 0 multiplicity 1
 O         0.689220         0.243593         0.035079
 C        -0.563353         0.423296         0.725650
 C        -1.875994        -0.129848         0.024356
 C        -2.572998         0.949565         1.029611
 C        -1.197850         1.837935         0.929242
 C        -1.134971         2.610659         2.294663
 O        -1.885177         1.751829         3.169047
 C        -2.163790         0.521876         2.423666
 C        -0.743855        -0.215217         2.126202
 H         1.352996         0.706695         0.526601
 H        -1.954955         0.201632        -1.087393
 H        -2.075666        -1.231703         0.113576
 H        -3.522844         1.453047         0.748567
 H        -1.111260         2.408418        -0.105399
 H        -0.034769         2.761992         2.667820
 H        -1.601814         3.530364         2.273366
 H        -2.870015        -0.093346         2.976639
 H        -0.034903         0.147615         2.890564
 H        -0.874771        -1.285269         2.098248
