19
Iteration:  3254charge 0 multiplicity 1
 O         0.695392         0.352737         0.067196
 C        -0.575055         0.444777         0.723609
 C        -1.854496        -0.081927         0.038152
 C        -2.530415         0.880842         0.940952
 C        -1.194868         1.837919         0.810367
 C        -1.013574         2.507003         2.189552
 O        -1.868659         1.789300         3.209165
 C        -2.236513         0.450000         2.496803
 C        -0.878057        -0.195223         2.182184
 H         1.326957         0.332751         0.708672
 H        -2.160004         0.105386        -1.006877
 H        -1.954738        -1.198515         0.245916
 H        -3.468253         1.377498         0.849932
 H        -1.205167         2.465689         0.070597
 H         0.007825         2.381784         2.549594
 H        -1.362670         3.587378         2.165628
 H        -3.012899         0.021590         3.077775
 H        -0.181521         0.341361         2.948631
 H        -0.718234        -1.297231         2.392945
