19
Iteration:  2060charge 0 multiplicity 1
 O         0.698495         0.402240         0.136134
 C        -0.585088         0.342463         0.793779
 C        -2.005229        -0.027028         0.105791
 C        -2.493330         1.049198         1.006638
 C        -1.126801         1.739093         0.928099
 C        -1.166687         2.647079         2.150843
 O        -1.874322         1.756184         3.092131
 C        -2.099913         0.436433         2.451564
 C        -0.767114        -0.289503         2.107614
 H         1.130243        -0.591094         0.041272
 H        -1.977945         0.339470        -0.974995
 H        -2.384055        -1.202173         0.015627
 H        -3.529863         1.497420         0.875456
 H        -1.105532         2.355352        -0.049017
 H        -0.045506         2.851872         2.355264
 H        -1.696001         3.506031         2.119562
 H        -2.761978        -0.019595         3.198557
 H         0.085945        -0.184991         2.918334
 H        -0.865906        -1.342277         2.327330
