19
Iteration:  1903charge 0 multiplicity 1
 O         0.728740         0.391316         0.216093
 C        -0.643063         0.374422         0.666041
 C        -1.996964        -0.032806        -0.057959
 C        -2.504475         0.923819         1.032423
 C        -1.215150         1.770100         0.855622
 C        -1.038887         2.530021         2.231751
 O        -1.886193         1.734756         3.172853
 C        -2.084713         0.539850         2.475076
 C        -0.774751        -0.200759         2.138450
 H         1.135954        -0.411709         0.409152
 H        -2.195207         0.253530        -1.121387
 H        -2.241641        -1.153059        -0.097477
 H        -3.338218         1.618690         0.839137
 H        -1.352780         2.408488         0.011270
 H         0.004320         2.694352         2.657251
 H        -1.457817         3.448561         2.076205
 H        -2.964337         0.042093         2.946987
 H         0.028129         0.022774         2.735859
 H        -0.895731        -1.282531         2.237911
