19
Iteration:  1810charge 0 multiplicity 1
 O         0.692403         0.204478         0.123232
 C        -0.600625         0.463091         0.775761
 C        -1.926002         0.019222        -0.012100
 C        -2.510211         0.996088         1.007823
 C        -1.162660         1.900551         0.879454
 C        -1.166632         2.557965         2.252011
 O        -1.917081         1.733285         3.154190
 C        -2.059850         0.459498         2.441641
 C        -0.767514        -0.200905         2.115753
 H         0.921047        -0.821965         0.323240
 H        -1.903043         0.319204        -1.072445
 H        -2.181605        -1.012453        -0.065917
 H        -3.518946         1.277621         0.882902
 H        -1.296081         2.450726        -0.054654
 H        -0.242958         2.728168         2.742408
 H        -1.697380         3.550407         2.317738
 H        -2.487976        -0.159964         3.158154
 H         0.144133         0.108936         2.752468
 H        -0.716115        -1.276349         2.063993
