19
Iteration:  3263charge 0 multiplicity 1
 O         0.726756         0.342191         0.123144
 C        -0.591849         0.427715         0.733031
 C        -1.882749        -0.075337         0.039432
 C        -2.573729         0.979731         1.036734
 C        -1.249304         1.805083         0.891094
 C        -1.004001         2.495027         2.145578
 O        -1.852892         1.710245         3.122478
 C        -2.198959         0.510711         2.423707
 C        -0.828349        -0.175621         2.162384
 H         1.206898         0.258950         0.880154
 H        -2.039342         0.013360        -1.036933
 H        -1.999177        -1.189000         0.386106
 H        -3.572765         1.383691         0.872273
 H        -1.320696         2.385193        -0.080439
 H        -0.001323         2.673961         2.639779
 H        -1.465304         3.451593         2.162873
 H        -2.962614         0.019695         3.048279
 H        -0.161337         0.333619         2.929988
 H        -0.613489        -1.267704         2.088812
