19
Iteration:  4543
 O         0.634715         0.240940         0.126577
 C        -0.593137         0.431657         0.689583
 C        -1.866026         0.014060        -0.098270
 C        -2.505266         1.058134         0.992693
 C        -1.169640         1.856337         0.898617
 C        -1.121062         2.551753         2.344600
 O        -1.834953         1.626338         3.223324
 C        -2.122156         0.524197         2.430792
 C        -0.813028        -0.243714         2.098752
 H         1.231519         0.138126         0.824722
 H        -1.983863         0.578952        -1.041174
 H        -2.179020        -0.949451        -0.297451
 H        -3.557661         1.465532         0.861560
 H        -1.217885         2.478059         0.012652
 H        -0.123554         2.777129         2.737864
 H        -1.685624         3.373043         2.351382
 H        -2.916126        -0.078813         2.944905
 H         0.010751        -0.118181         2.787845
 H        -0.983299        -1.344482         1.949333
