19
Iteration:  4934
 O         0.768653         0.251249         0.247343
 C        -0.545906         0.398367         0.739846
 C        -1.938457        -0.110714         0.015072
 C        -2.571617         0.892490         0.998459
 C        -1.260562         1.879677         0.879017
 C        -1.055105         2.585961         2.225364
 O        -1.912397         1.793110         3.148606
 C        -2.113365         0.512774         2.426103
 C        -0.796351        -0.196672         2.103261
 H         0.794275         0.491856        -0.689017
 H        -1.921021         0.361004        -1.038355
 H        -2.194256        -1.221132         0.069628
 H        -3.547911         1.347358         0.977607
 H        -1.097139         2.509418         0.049611
 H         0.043486         2.688664         2.522197
 H        -1.494784         3.546445         2.338003
 H        -2.754255        -0.075925         3.018240
 H         0.009674        -0.102858         2.791262
 H        -1.054624        -1.288634         1.999797
