19
Iteration:  4188
 O         0.785112         0.259282         0.218067
 C        -0.558449         0.407044         0.725487
 C        -1.944946         0.020879         0.001807
 C        -2.580048         1.030159         1.037203
 C        -1.246832         1.830820         0.948981
 C        -1.033287         2.479499         2.242621
 O        -1.885053         1.690888         3.132639
 C        -2.195295         0.510049         2.378829
 C        -0.774869        -0.253351         2.104799
 H         0.977306         1.178178        -0.256217
 H        -2.112712         0.416735        -0.947277
 H        -2.206458        -1.047390         0.077490
 H        -3.633271         1.352375         0.788975
 H        -1.094476         2.455597        -0.047288
 H         0.000886         2.414608         2.605724
 H        -1.265815         3.589330         2.121882
 H        -2.988307         0.004963         2.921550
 H         0.000892         0.020499         2.871997
 H        -0.965960        -1.386887         1.993438
