19
Iteration:  3076charge 0 multiplicity 1
 O         0.703151         0.334245         0.110562
 C        -0.552883         0.409404         0.714036
 C        -1.852358        -0.105617         0.024846
 C        -2.538539         0.885784         0.991355
 C        -1.260421         1.852510         0.893223
 C        -1.086364         2.555955         2.270209
 O        -1.916935         1.785365         3.152151
 C        -2.084618         0.530033         2.435226
 C        -0.813374        -0.180579         2.194346
 H         0.853124        -0.422566        -0.360079
 H        -1.847809         0.152594        -1.074187
 H        -2.127884        -1.216332         0.119738
 H        -3.557555         1.262508         0.812139
 H        -1.004895         2.443347         0.069199
 H        -0.014337         2.602114         2.545000
 H        -1.483372         3.593619         2.401332
 H        -2.917077        -0.008068         2.962830
 H         0.025071         0.108989         2.875103
 H        -1.135965        -1.282962         2.180803
