19
Iteration:   566charge 0 multiplicity 1
 O         0.646238         0.145285         0.034983
 C        -0.554622         0.397972         0.776775
 C        -1.934595         0.095775        -0.013613
 C        -2.480439         1.096627         0.978023
 C        -1.160643         1.849060         0.896446
 C        -1.035515         2.502136         2.324524
 O        -2.049316         1.707427         3.151210
 C        -2.210904         0.504127         2.373232
 C        -0.641131        -0.280994         2.181380
 H         1.519015         0.270687         0.636854
 H        -1.921213         0.481007        -1.045967
 H        -2.313054        -0.956511        -0.033897
 H        -3.434740         1.747226         0.971551
 H        -1.080066         2.520159         0.004406
 H        -0.016324         2.553577         2.807955
 H        -1.430547         3.628183         2.396294
 H        -2.978602        -0.170727         2.924725
 H         0.038492         0.198357         2.912577
 H        -0.623077        -1.390490         2.249143
