19
Iteration:   687charge 0 multiplicity 1
 O         0.633543         0.247675         0.192741
 C        -0.589920         0.476751         0.727262
 C        -1.890531         0.071011        -0.024345
 C        -2.507547         1.002203         0.983274
 C        -1.176278         1.929624         0.928795
 C        -0.965274         2.532656         2.244279
 O        -1.903783         1.737515         3.149356
 C        -2.156163         0.356626         2.398835
 C        -0.869167        -0.267098         2.114110
 H         1.187664        -0.349534         0.577790
 H        -1.994577         0.312988        -1.134691
 H        -2.148511        -0.963581        -0.015255
 H        -3.535621         1.365938         0.840363
 H        -1.016029         2.487088         0.013308
 H         0.118099         2.600262         2.652647
 H        -1.325671         3.517261         2.401140
 H        -3.059618        -0.148553         2.890362
 H        -0.122572         0.053962         2.893071
 H        -0.818986        -1.347376         1.952738
