19
Iteration:  4596
 O         0.618769         0.094963         0.058248
 C        -0.528645         0.437024         0.695184
 C        -1.745593         0.075684        -0.008865
 C        -2.482472         1.038528         0.956514
 C        -1.192112         1.890102         1.031505
 C        -1.178826         2.569640         2.349224
 O        -1.898743         1.672157         3.212473
 C        -2.135485         0.448437         2.406294
 C        -0.827516        -0.199314         2.089509
 H         0.925563         0.872428        -0.275813
 H        -1.920604         0.435906        -1.032184
 H        -2.103973        -0.900872         0.122243
 H        -3.573658         1.260489         0.823676
 H        -1.011694         2.626030         0.257789
 H        -0.166309         2.656039         2.713042
 H        -1.538193         3.694597         2.289519
 H        -2.954551        -0.198289         2.864383
 H        -0.006564        -0.020022         2.780356
 H        -0.976717        -1.322963         1.907929
