19
Iteration:   402
 O         0.767077         0.107622         0.102359
 C        -0.496562         0.416978         0.599669
 C        -1.930699         0.080019        -0.006020
 C        -2.463085         1.071973         0.991601
 C        -1.162670         1.812027         0.946085
 C        -1.115006         2.423970         2.325088
 O        -1.974292         1.740233         3.233456
 C        -2.230232         0.542247         2.406461
 C        -0.841168        -0.161758         2.072048
 H         1.414676         0.142190         0.819889
 H        -2.136167         0.497805        -0.957674
 H        -2.237374        -1.008930         0.056483
 H        -3.408182         1.584360         0.788376
 H        -1.042719         2.557564         0.168623
 H        -0.107986         2.512287         2.854106
 H        -1.485735         3.555287         2.138371
 H        -2.869284        -0.118965         2.989745
 H        -0.060770         0.256458         2.712339
 H        -0.775292        -1.266789         2.045157
