19
Iteration:  1789charge 0 multiplicity 1
 O         0.672542         0.229432         0.022538
 C        -0.564925         0.436018         0.778427
 C        -1.832898        -0.025772         0.015130
 C        -2.485726         0.960941         0.986087
 C        -1.300733         1.878891         0.964538
 C        -1.149257         2.550200         2.251528
 O        -1.821125         1.725528         3.229119
 C        -2.175086         0.530682         2.382740
 C        -0.827263        -0.202712         2.160797
 H         1.231074        -0.461942         0.386324
 H        -1.849475         0.211541        -1.135326
 H        -1.934094        -1.108513         0.001747
 H        -3.447738         1.337127         0.760022
 H        -1.066360         2.478310         0.074115
 H        -0.108246         2.779454         2.412025
 H        -1.517084         3.548824         2.255783
 H        -3.022281         0.041295         2.816167
 H        -0.051495         0.118968         2.923454
 H        -0.724350        -1.252209         2.022314
