19
Iteration:  3939charge 0 multiplicity 1
 O         0.747276         0.250740         0.158812
 C        -0.605395         0.310371         0.656576
 C        -1.927353         0.014248        -0.046253
 C        -2.535506         1.010962         0.979297
 C        -1.185072         1.817944         0.935210
 C        -0.979838         2.497221         2.346430
 O        -1.998837         1.721710         3.144898
 C        -2.148515         0.503302         2.428580
 C        -0.745548        -0.167173         2.152757
 H         0.769973         1.085599        -0.506500
 H        -2.059248         0.264663        -1.145862
 H        -2.324083        -1.115271         0.090960
 H        -3.447611         1.624688         0.934657
 H        -1.113993         2.561224         0.056010
 H         0.110359         2.338566         2.719478
 H        -1.370974         3.473653         2.416239
 H        -2.942116        -0.092410         2.908343
 H         0.011182         0.178965         2.888133
 H        -0.975323        -1.219835         2.361456
