19
Iteration:  1717charge 0 multiplicity 1
 O         0.732254         0.204184         0.149261
 C        -0.536225         0.480156         0.724780
 C        -1.841104         0.001726         0.006689
 C        -2.570622         0.922917         1.022161
 C        -1.272924         1.819116         0.908602
 C        -1.079508         2.437070         2.231541
 O        -1.816284         1.703572         3.185076
 C        -2.207186         0.552316         2.423503
 C        -0.841430        -0.135948         2.106021
 H         1.222300         0.971397        -0.070950
 H        -2.034653         0.398535        -0.984519
 H        -2.204269        -1.013676        -0.143261
 H        -3.653036         1.375929         0.941623
 H        -1.222704         2.548561         0.072148
 H        -0.021902         2.428918         2.501082
 H        -1.287595         3.571783         2.202002
 H        -3.017912        -0.043051         3.036079
 H        -0.128468         0.098361         2.857363
 H        -1.010231        -1.288157         2.174337
