19
Iteration:  4791charge 0 multiplicity 1
 O         0.762767         0.411874         0.100126
 C        -0.558639         0.374168         0.677880
 C        -1.898507        -0.084087         0.021138
 C        -2.556280         0.996220         1.019622
 C        -1.182028         1.829535         0.866721
 C        -0.986270         2.529619         2.271975
 O        -1.865555         1.701424         3.170513
 C        -2.227393         0.503315         2.466454
 C        -0.923066        -0.234723         2.123566
 H         1.316921         0.009104         0.698949
 H        -2.080377         0.275309        -1.060218
 H        -2.303994        -1.193870        -0.028307
 H        -3.464637         1.589087         0.945434
 H        -1.140610         2.432466        -0.068743
 H         0.083402         2.577215         2.532105
 H        -1.352769         3.526978         2.358569
 H        -3.070504        -0.030516         2.984566
 H        -0.170371        -0.117832         2.886658
 H        -1.078159        -1.336013         2.061310
