19
Iteration:  3331
 O         0.640150         0.230989         0.046329
 C        -0.545834         0.413107         0.770505
 C        -1.839219        -0.039406         0.027180
 C        -2.535775         0.991120         0.959724
 C        -1.243455         1.861381         0.833926
 C        -1.179200         2.619955         2.175323
 O        -1.852386         1.710678         3.193603
 C        -2.127186         0.510988         2.471727
 C        -0.722808        -0.234357         2.222423
 H         1.364400        -0.160582         0.694183
 H        -1.851190         0.241509        -1.074263
 H        -2.246645        -1.073283         0.228679
 H        -3.593902         1.243451         0.866459
 H        -1.028482         2.470447         0.066577
 H        -0.172523         2.970128         2.510015
 H        -1.796940         3.540003         2.095439
 H        -2.949186         0.025336         2.952507
 H         0.038427         0.048184         3.048884
 H        -0.940586        -1.336274         2.248950
