19
Iteration:  1053
 O         0.715309         0.272963         0.141323
 C        -0.558338         0.432289         0.692585
 C        -1.907546         0.020367        -0.039824
 C        -2.501211         0.991464         1.006869
 C        -1.206073         1.917783         0.914600
 C        -1.018008         2.518327         2.287982
 O        -1.938459         1.664915         3.128052
 C        -2.180793         0.506116         2.460990
 C        -0.810716        -0.211499         2.124764
 H         0.970818        -0.566090         0.400776
 H        -1.969390         0.441254        -1.024357
 H        -2.360311        -1.060337        -0.139343
 H        -3.504377         1.464868         0.973716
 H        -1.253075         2.579464         0.036177
 H        -0.021916         2.268943         2.628996
 H        -1.116372         3.554680         2.418344
 H        -3.016802        -0.070491         2.859414
 H        -0.059533         0.130823         2.858165
 H        -0.801043        -1.334412         2.311231
