19
Iteration:  4987
 O         0.687093         0.310720         0.158660
 C        -0.562931         0.323507         0.745010
 C        -1.828365        -0.034978         0.026774
 C        -2.541263         0.939847         0.953284
 C        -1.297196         1.806029         0.893241
 C        -1.228243         2.631498         2.172763
 O        -1.705912         1.764422         3.153137
 C        -2.146606         0.561817         2.480554
 C        -0.829970        -0.280432         2.136644
 H         1.259869        -0.366895         0.675069
 H        -1.921628         0.331087        -0.968286
 H        -1.985118        -1.030987         0.115858
 H        -3.480092         1.423974         0.747657
 H        -1.105217         2.343487        -0.043067
 H        -0.218105         3.081132         2.463889
 H        -1.993136         3.501748         2.148460
 H        -2.925662         0.141239         3.104011
 H         0.002622        -0.080796         2.781169
 H        -1.007417        -1.402493         2.097996
