19
Iteration:   176
 O         0.669463         0.262482         0.266272
 C        -0.591233         0.346683         0.768553
 C        -1.925189         0.086974        -0.025512
 C        -2.425559         1.068339         1.008935
 C        -1.146830         1.859800         0.903179
 C        -1.051813         2.463612         2.176379
 O        -1.944642         1.761733         3.096236
 C        -2.082246         0.480090         2.423035
 C        -0.863535        -0.388338         2.118796
 H         0.954469         1.167444         0.001417
 H        -2.009270         0.516470        -1.034691
 H        -2.333000        -0.921412        -0.046411
 H        -3.388459         1.520938         1.067992
 H        -0.958687         2.468381         0.041524
 H        -0.084309         2.455740         2.636498
 H        -1.334107         3.654948         2.337972
 H        -3.030392         0.029501         2.819043
 H        -0.031293        -0.362728         2.819345
 H        -1.238324        -1.420407         2.091051
