19
Iteration:   937
 O         0.646101         0.280753         0.141438
 C        -0.603980         0.451153         0.744358
 C        -1.885090         0.014608         0.017898
 C        -2.500845         1.072060         1.019886
 C        -1.184121         1.837239         0.841139
 C        -1.030797         2.474153         2.280757
 O        -1.873465         1.684418         3.128264
 C        -2.201512         0.498567         2.413551
 C        -0.802986        -0.261465         2.121405
 H         1.135234        -0.126128         0.754374
 H        -1.778372         0.535780        -0.958509
 H        -2.320371        -0.915347        -0.103982
 H        -3.410724         1.516196         0.757519
 H        -1.073538         2.394207        -0.027482
 H        -0.072453         2.509318         2.740398
 H        -1.361774         3.646658         2.460656
 H        -3.052301        -0.055276         2.927460
 H        -0.030963        -0.164937         2.897214
 H        -0.782302        -1.310023         1.977185
