19
Iteration:   271charge 0 multiplicity 1
 O         0.670219         0.143192        -0.027493
 C        -0.548043         0.374205         0.707536
 C        -1.769365         0.008779        -0.077686
 C        -2.462608         1.035490         0.980509
 C        -1.154133         1.773621         0.942497
 C        -1.081314         2.538368         2.314979
 O        -2.045836         1.806947         3.286402
 C        -2.241830         0.563781         2.487958
 C        -0.874575        -0.215612         2.137827
 H         1.524857         0.416373         0.565813
 H        -1.602752         0.365710        -1.054561
 H        -1.986732        -1.116014        -0.251435
 H        -3.290860         1.680400         0.749655
 H        -0.919760         2.376411         0.070896
 H        -0.025918         2.550542         2.730808
 H        -1.329498         3.521066         2.259311
 H        -2.839628        -0.062492         3.090552
 H         0.043139        -0.049003         2.709270
 H        -0.890196        -1.322372         2.074902
