19
Iteration:   293
 O         0.619114         0.153403         0.058208
 C        -0.534080         0.428451         0.775088
 C        -1.828953         0.064947         0.048651
 C        -2.489983         0.979402         0.921622
 C        -1.212674         1.937033         0.929715
 C        -1.051941         2.514336         2.370904
 O        -1.914626         1.686336         3.076328
 C        -2.193770         0.528085         2.335530
 C        -0.833329        -0.191601         2.213333
 H         1.243043        -0.088774         0.656883
 H        -1.783357         0.380664        -0.963742
 H        -2.171169        -1.028320        -0.099485
 H        -3.495158         1.333747         0.839719
 H        -1.072937         2.579135         0.075676
 H         0.048035         2.508366         2.721786
 H        -1.288514         3.531533         2.468537
 H        -2.950760        -0.026806         2.860663
 H        -0.125956         0.067691         3.028343
 H        -0.838860        -1.313185         2.124884
