19
Iteration:  3442
 O         0.774402         0.248339         0.091695
 C        -0.543607         0.386507         0.716692
 C        -1.896454        -0.116278         0.064686
 C        -2.602621         0.941844         0.955374
 C        -1.248210         1.876821         0.906933
 C        -1.206772         2.682044         2.181963
 O        -1.770651         1.700471         3.203126
 C        -2.155292         0.563015         2.412059
 C        -0.779145        -0.210005         2.161921
 H         1.267740        -0.110321         0.755576
 H        -1.972351         0.269824        -1.036688
 H        -2.187093        -1.209822         0.079437
 H        -3.685466         1.172346         0.699126
 H        -1.171484         2.487903         0.109089
 H        -0.175479         2.978496         2.498374
 H        -1.882259         3.551496         2.167387
 H        -2.965786        -0.002011         2.954800
 H        -0.060055         0.052425         3.016340
 H        -0.929361        -1.348604         2.251750
