19
Iteration:  3684charge 0 multiplicity 1
 O         0.718611         0.200665         0.196429
 C        -0.584314         0.377969         0.704638
 C        -1.882780        -0.056530        -0.009143
 C        -2.518914         0.894856         0.918246
 C        -1.312818         1.866004         0.843983
 C        -1.095962         2.555138         2.266366
 O        -1.863797         1.712088         3.219372
 C        -2.085331         0.578909         2.442882
 C        -0.793008        -0.079605         2.207497
 H         0.707440         0.691222        -0.568087
 H        -1.858629         0.262593        -1.045936
 H        -2.340652        -1.152722         0.045183
 H        -3.511764         1.167998         0.697411
 H        -1.160872         2.438460        -0.079638
 H         0.038613         2.406317         2.556885
 H        -1.313385         3.569134         2.403774
 H        -2.859446        -0.066926         2.875788
 H         0.063607         0.100084         2.828531
 H        -1.056718        -1.154535         2.160718
