19
Iteration:  1537charge 0 multiplicity 1
 O         0.725980         0.114448         0.122790
 C        -0.592052         0.419417         0.686058
 C        -1.889468         0.071875        -0.036540
 C        -2.497706         1.007842         1.010415
 C        -1.271650         1.867477         0.917005
 C        -1.189141         2.529265         2.369773
 O        -1.874673         1.721807         3.218346
 C        -2.116930         0.527285         2.380521
 C        -0.755423        -0.255774         2.044155
 H         1.359193         0.470670         0.645535
 H        -2.177363         0.481758        -1.087296
 H        -2.290163        -0.922533        -0.081985
 H        -3.441795         1.553009         0.908075
 H        -0.862627         2.442874         0.078402
 H        -0.158474         2.762961         2.674297
 H        -1.587618         3.503181         2.233529
 H        -2.881600        -0.084366         2.794337
 H        -0.032801         0.216490         2.789589
 H        -0.695290        -1.313335         2.142067
