19
Iteration:  4719charge 0 multiplicity 1
 O         0.722303         0.072470         0.061427
 C        -0.599785         0.388269         0.730748
 C        -1.882657         0.000321        -0.040108
 C        -2.469172         1.120085         0.981110
 C        -1.126067         1.907996         0.930021
 C        -1.240138         2.620101         2.350999
 O        -1.892165         1.656524         3.239588
 C        -2.156530         0.531837         2.464418
 C        -0.762480        -0.270591         2.082919
 H         0.965543         0.896060        -0.308148
 H        -1.733221         0.299637        -1.068223
 H        -2.205317        -0.959530        -0.011509
 H        -3.459626         1.567332         0.777576
 H        -1.011143         2.527040         0.045381
 H        -0.302797         2.974685         2.795784
 H        -1.993950         3.486887         2.163499
 H        -2.788078        -0.109386         2.981412
 H         0.000986        -0.052330         2.857129
 H        -0.805048        -1.373685         1.966663
