19
Iteration:  2361
 O         0.611202         0.282726         0.060997
 C        -0.568585         0.360869         0.778726
 C        -1.874780        -0.075363         0.109238
 C        -2.503379         1.051839         0.969276
 C        -1.201358         1.850646         0.914254
 C        -1.209567         2.628025         2.196943
 O        -1.829568         1.703669         3.142682
 C        -2.064549         0.499832         2.390546
 C        -0.755753        -0.266348         2.146015
 H         1.277505         0.331706         0.669439
 H        -2.038782        -0.043445        -0.935400
 H        -2.303901        -1.139722         0.296587
 H        -3.590240         1.457376         0.892075
 H        -0.864082         2.507526         0.031883
 H        -0.243826         3.054144         2.669611
 H        -1.802564         3.502918         2.011948
 H        -2.842372        -0.105907         2.935574
 H        -0.084715        -0.023127         2.902161
 H        -0.771096        -1.409213         2.212449
