19
Iteration:   848charge 0 multiplicity 1
 O         0.688030         0.167733         0.082791
 C        -0.609749         0.380376         0.673598
 C        -1.823494         0.041759        -0.111605
 C        -2.439604         1.063698         1.030779
 C        -1.207430         1.865280         0.932498
 C        -1.084868         2.499442         2.265039
 O        -1.908924         1.676236         3.242542
 C        -2.170621         0.524746         2.442777
 C        -0.864707        -0.174349         2.136369
 H         1.384252         0.238010         0.652630
 H        -2.050966         0.385478        -1.085668
 H        -2.183422        -0.990362        -0.061756
 H        -3.464453         1.526650         0.884001
 H        -1.091781         2.483820         0.024397
 H        -0.078852         2.571066         2.569190
 H        -1.396884         3.636161         2.336110
 H        -2.992052        -0.098980         2.941393
 H        -0.069478         0.076431         2.840000
 H        -1.012185        -1.239968         2.270124
