19
Iteration:  3640
 O         0.693375         0.275958         0.066875
 C        -0.505467         0.364867         0.778355
 C        -1.936650        -0.069686         0.050210
 C        -2.464228         0.974766         1.041245
 C        -1.241996         1.826392         0.838232
 C        -1.076390         2.587170         2.191384
 O        -1.985321         1.778634         3.119014
 C        -2.109767         0.517046         2.476417
 C        -0.778418        -0.244995         2.153881
 H         1.328414         0.690693         0.626828
 H        -2.149130         0.380990        -0.941162
 H        -2.250395        -1.195779        -0.010361
 H        -3.484766         1.313650         0.935819
 H        -1.182300         2.388478        -0.072665
 H         0.046630         2.502176         2.495585
 H        -1.381487         3.560467         2.362865
 H        -2.662594        -0.148740         3.167801
 H        -0.088283         0.011587         2.941917
 H        -1.047420        -1.334385         2.167455
