19
Iteration:  1148charge 0 multiplicity 1
 O         0.741181         0.162518         0.115643
 C        -0.564099         0.400102         0.695535
 C        -1.997123         0.057783        -0.111434
 C        -2.579774         0.975782         0.974896
 C        -1.206495         1.869019         0.926358
 C        -1.085222         2.547566         2.332934
 O        -1.888975         1.719259         3.262263
 C        -2.083690         0.478391         2.344642
 C        -0.828193        -0.210830         2.128200
 H         1.428400         0.408835         0.910646
 H        -1.678344         0.456325        -1.095633
 H        -2.193179        -0.963200        -0.302415
 H        -3.613390         1.510761         0.996974
 H        -1.103152         2.632140         0.033263
 H        -0.039393         2.672817         2.685672
 H        -1.452594         3.611158         2.341323
 H        -2.812563        -0.030702         2.958288
 H        -0.066830        -0.032012         2.858865
 H        -0.867731        -1.287288         2.082226
