19
Iteration:   342
 O         0.781232         0.296855         0.189581
 C        -0.573021         0.355939         0.721074
 C        -1.886199         0.003263        -0.127629
 C        -2.531481         0.995922         1.018810
 C        -1.209606         1.856257         0.916910
 C        -1.023131         2.616651         2.283591
 O        -1.799295         1.698448         3.157309
 C        -2.222499         0.522346         2.465717
 C        -0.990702        -0.305936         2.087947
 H         1.426280        -0.092502         0.959687
 H        -2.020037         0.520463        -1.178622
 H        -2.210636        -0.954648        -0.436242
 H        -3.522681         1.517799         0.895817
 H        -1.184919         2.410389        -0.060598
 H        -0.027250         2.641397         2.604978
 H        -1.389675         3.696222         2.257627
 H        -3.039384        -0.019370         3.051309
 H        -0.275559        -0.270692         2.937949
 H        -1.117394        -1.397927         2.032495
