19
Iteration:  4657
 O         0.719292         0.368383         0.340297
 C        -0.630962         0.490449         0.711927
 C        -1.859879        -0.085118        -0.109672
 C        -2.575110         0.965362         1.023957
 C        -1.293956         1.900155         0.940224
 C        -0.973518         2.408033         2.302979
 O        -1.760843         1.742997         3.170031
 C        -2.189048         0.482199         2.370235
 C        -0.888617        -0.225992         2.026500
 H         0.780691         0.010397        -0.496714
 H        -1.976444         0.485364        -1.029446
 H        -2.218593        -1.196116        -0.272310
 H        -3.636209         1.109536         0.870963
 H        -1.340827         2.659774         0.075828
 H         0.132050         2.230031         2.453857
 H        -1.078767         3.470491         2.466394
 H        -2.973741         0.086501         3.050592
 H        -0.108639        -0.098927         2.820764
 H        -0.872390        -1.245410         1.724983
