19
Iteration:   388
 O         0.739168         0.194051         0.098245
 C        -0.613422         0.403860         0.693407
 C        -1.873471         0.017866        -0.085214
 C        -2.506711         1.073713         0.956199
 C        -1.155806         1.883967         0.954185
 C        -1.035207         2.557726         2.335739
 O        -1.864801         1.683698         3.209099
 C        -2.225683         0.481892         2.373770
 C        -0.887027        -0.245320         2.130676
 H         1.325655         0.023895         0.938485
 H        -1.967472         0.087446        -1.122243
 H        -2.178431        -1.003262         0.169340
 H        -3.446731         1.570066         0.804048
 H        -1.128091         2.543474         0.087508
 H        -0.036774         2.698891         2.615337
 H        -1.595933         3.590726         2.331172
 H        -3.109773         0.063000         2.715413
 H        -0.247909         0.128686         2.917959
 H        -0.928357        -1.326143         2.326347
