19
Iteration:  4636charge 0 multiplicity 1
 O         0.751438         0.421159         0.268847
 C        -0.639147         0.416228         0.704731
 C        -1.957312         0.086353        -0.001391
 C        -2.539006         1.010573         0.995760
 C        -1.232838         1.819538         0.921223
 C        -0.906424         2.362895         2.261271
 O        -1.949054         1.684229         3.117920
 C        -2.169006         0.475608         2.422529
 C        -0.812290        -0.224016         2.104726
 H         0.847782         0.349977        -0.799984
 H        -2.059037         0.300996        -1.086940
 H        -2.187135        -1.100029         0.228547
 H        -3.509045         1.438518         0.760390
 H        -1.074268         2.334033        -0.086959
 H         0.170686         2.146420         2.509288
 H        -1.025269         3.518162         2.445296
 H        -2.806614        -0.244928         3.003165
 H        -0.005050        -0.003206         2.852264
 H        -1.015462        -1.277268         2.100737
