19
Iteration:  4965
 O         0.699714         0.181282         0.243940
 C        -0.557213         0.444694         0.770263
 C        -1.920898        -0.022708        -0.050846
 C        -2.564313         0.918287         1.013232
 C        -1.294466         1.863883         0.826869
 C        -1.190023         2.659123         2.116578
 O        -1.670116         1.677828         3.173055
 C        -2.142419         0.462029         2.425078
 C        -0.835608        -0.194584         2.190060
 H         1.300638         0.784744         0.774612
 H        -1.939413         0.439159        -1.018170
 H        -2.144099        -1.034138        -0.126835
 H        -3.507232         1.426385         0.922721
 H        -1.132177         2.379514        -0.135125
 H        -0.136540         3.089364         2.220080
 H        -1.963663         3.488784         2.212295
 H        -2.842667        -0.110618         3.031006
 H        -0.056575         0.045028         2.867874
 H        -0.882214        -1.323414         2.099060
