19
Iteration:  3926charge 0 multiplicity 1
 O         0.717701         0.239001         0.112485
 C        -0.538203         0.440040         0.745388
 C        -1.911898        -0.027840         0.031794
 C        -2.536261         1.034767         0.932534
 C        -1.210233         1.776556         0.946536
 C        -1.055789         2.395102         2.312836
 O        -1.924223         1.751978         3.223552
 C        -2.234340         0.575477         2.410821
 C        -0.785026        -0.197148         2.078991
 H         1.024297         1.009102        -0.223355
 H        -1.859807         0.348245        -1.014986
 H        -2.267251        -1.200849         0.064803
 H        -3.540725         1.367472         0.571322
 H        -0.946322         2.495731         0.008470
 H        -0.027201         2.378643         2.801687
 H        -1.213047         3.476480         2.212696
 H        -2.882055        -0.054805         3.025370
 H         0.009583         0.169707         2.686270
 H        -0.632079        -1.304113         2.002381
