19
Iteration:   972charge 0 multiplicity 1
 O         0.692230         0.290800         0.212568
 C        -0.583452         0.417739         0.623766
 C        -1.884558        -0.029667        -0.092464
 C        -2.475758         1.003598         0.983859
 C        -1.221148         1.858460         0.857429
 C        -1.032872         2.528218         2.327685
 O        -1.834247         1.724040         3.199752
 C        -2.188337         0.503722         2.488877
 C        -0.866595        -0.231137         2.117550
 H         0.898763        -0.623461         0.240960
 H        -1.948904         0.506074        -1.109980
 H        -2.096407        -1.064211        -0.166411
 H        -3.403576         1.557000         0.908145
 H        -1.212678         2.488080        -0.054191
 H        -0.072985         2.519100         2.759004
 H        -1.590046         3.556138         2.459985
 H        -3.030918         0.022848         2.992906
 H        -0.034510        -0.022287         2.818732
 H        -1.094037        -1.275610         1.888246
