19
Iteration:  3244
 O         0.657504         0.331903         0.042384
 C        -0.549239         0.419182         0.695437
 C        -1.827828        -0.153888         0.012169
 C        -2.521884         0.898949         0.986007
 C        -1.251049         1.829445         0.859884
 C        -1.052000         2.495931         2.260345
 O        -1.898227         1.812579         3.194367
 C        -2.201150         0.538029         2.470422
 C        -0.836605        -0.164857         2.224876
 H         1.457593         0.412205         0.550080
 H        -1.799314         0.294126        -1.005168
 H        -2.191702        -1.189166        -0.003003
 H        -3.490498         1.198583         0.625393
 H        -1.059645         2.359239         0.039679
 H        -0.001227         2.393860         2.442041
 H        -1.194477         3.638055         2.295067
 H        -2.889042        -0.049956         3.014994
 H        -0.020541         0.079883         2.984363
 H        -0.984126        -1.289114         2.168568
