19
Iteration:  2431charge 0 multiplicity 1
 O         0.682370         0.226089         0.110606
 C        -0.560829         0.443389         0.697378
 C        -1.903853        -0.048019         0.077737
 C        -2.541254         0.978034         1.039595
 C        -1.304462         1.899490         0.853249
 C        -1.068809         2.493209         2.204221
 O        -1.901651         1.711068         3.126637
 C        -2.138855         0.478443         2.437145
 C        -0.741319        -0.148564         2.161113
 H         1.352194         0.456357         0.719224
 H        -1.862673         0.205083        -1.026276
 H        -2.076839        -1.054425         0.219260
 H        -3.604795         1.257247         1.002356
 H        -1.143395         2.519622        -0.116261
 H        -0.008518         2.574037         2.353129
 H        -1.491262         3.557964         2.175584
 H        -2.744187        -0.158186         3.054760
 H        -0.061519         0.203542         2.997038
 H        -0.638459        -1.201319         2.186564
