19
Iteration:  1775
 O         0.714471         0.301894        -0.000936
 C        -0.523686         0.406971         0.717543
 C        -1.855264        -0.053114         0.019733
 C        -2.565463         0.981891         0.957430
 C        -1.200099         1.848922         0.855044
 C        -1.088019         2.579621         2.288888
 O        -1.817350         1.719832         3.180019
 C        -2.218782         0.468104         2.460209
 C        -0.857237        -0.235755         2.188836
 H         1.409274        -0.015773         0.726572
 H        -1.929626         0.328187        -0.907532
 H        -2.308634        -1.019070         0.172919
 H        -3.569710         1.406958         0.855854
 H        -1.258132         2.513955         0.002330
 H        -0.107575         2.608962         2.677714
 H        -1.602381         3.620055         2.264635
 H        -2.876660        -0.064466         3.107227
 H        -0.260490         0.142295         3.080026
 H        -1.037337        -1.319790         2.303329
