19
Iteration:   138charge 0 multiplicity 1
 O         0.746627         0.079219         0.169223
 C        -0.537983         0.394685         0.651516
 C        -1.768708         0.051005        -0.059282
 C        -2.482508         1.070077         0.966338
 C        -1.281079         1.943209         0.902344
 C        -1.106956         2.459057         2.353255
 O        -1.919229         1.686517         3.303390
 C        -2.234720         0.580898         2.379436
 C        -0.847349        -0.115629         2.119033
 H         0.728111        -0.021524        -0.891859
 H        -1.876407         0.264420        -1.151345
 H        -2.006966        -1.075246         0.108309
 H        -3.538047         1.385679         0.693876
 H        -1.062734         2.665269         0.075112
 H        -0.017497         2.175994         2.459559
 H        -1.229414         3.487747         2.524111
 H        -3.040141        -0.038189         2.767729
 H        -0.060268         0.066335         2.920225
 H        -0.917992        -1.253232         2.203867
