19
Iteration:  1726
 O         0.774141         0.204894         0.146444
 C        -0.611003         0.451287         0.774166
 C        -1.898294        -0.015548        -0.044574
 C        -2.571686         0.925653         1.003263
 C        -1.313909         1.855401         0.913918
 C        -0.985167         2.498485         2.232084
 O        -1.863757         1.693993         3.124729
 C        -2.171060         0.562635         2.478347
 C        -0.819677        -0.177026         2.131714
 H         1.144871         1.063331         0.209179
 H        -2.071948         0.604428        -1.064418
 H        -2.020577        -1.118778        -0.106169
 H        -3.647279         1.194557         0.971762
 H        -1.295365         2.488427         0.005550
 H         0.173168         2.421608         2.490173
 H        -1.346688         3.511520         2.427255
 H        -2.956294        -0.036803         3.046784
 H        -0.027170         0.057419         2.808552
 H        -0.962801        -1.276769         2.017905
