19
Iteration:  2594charge 0 multiplicity 1
 O         0.730881         0.218997         0.105316
 C        -0.542402         0.407544         0.727304
 C        -1.939972        -0.049266         0.066429
 C        -2.502486         0.983599         1.011280
 C        -1.281527         1.837373         0.889996
 C        -1.165244         2.594940         2.236292
 O        -1.878947         1.669547         3.142862
 C        -2.086343         0.512146         2.425125
 C        -0.778365        -0.153493         2.106247
 H         1.398973         0.513538         0.642956
 H        -1.977988         0.203043        -1.067755
 H        -2.298690        -1.102507         0.248641
 H        -3.492987         1.497095         1.002890
 H        -1.356055         2.532259        -0.070464
 H        -0.118747         2.777201         2.720284
 H        -1.660622         3.495738         2.211914
 H        -2.808837        -0.063677         3.012052
 H         0.119923         0.063050         2.678740
 H        -0.774485        -1.223406         2.105053
