19
Iteration:  1852
 O         0.654568         0.385327         0.131028
 C        -0.587316         0.428789         0.735403
 C        -1.874330        -0.056269        -0.016280
 C        -2.533112         0.928674         0.943197
 C        -1.217230         1.827775         0.880495
 C        -1.051218         2.471409         2.244657
 O        -1.859538         1.766313         3.170989
 C        -2.132246         0.483798         2.491098
 C        -0.844406        -0.182256         2.158827
 H         0.917579        -0.536356        -0.039735
 H        -1.858601         0.145997        -1.032591
 H        -2.141631        -1.105757         0.087749
 H        -3.490039         1.413162         0.883123
 H        -0.846981         2.537100         0.144662
 H         0.026097         2.396284         2.504544
 H        -1.389482         3.627196         2.209524
 H        -2.964819         0.048401         2.985816
 H        -0.125755         0.035359         3.041474
 H        -0.865655        -1.293543         2.146355
