19
Iteration:  2914
 O         0.666916         0.162098         0.153611
 C        -0.575703         0.458495         0.727631
 C        -1.865021         0.012082         0.053934
 C        -2.579507         0.953764         1.022089
 C        -1.289756         1.891830         0.866824
 C        -1.153429         2.570747         2.248661
 O        -1.843139         1.673749         3.105576
 C        -2.090407         0.491964         2.442148
 C        -0.724614        -0.134361         2.116794
 H         1.263163        -0.186643         0.801839
 H        -1.882402         0.434527        -0.940166
 H        -2.196277        -1.011763        -0.063439
 H        -3.594900         1.360314         0.786781
 H        -1.244100         2.412738        -0.032505
 H        -0.128042         2.640892         2.661819
 H        -1.481308         3.662159         2.133200
 H        -2.827580        -0.219348         3.022512
 H         0.172689         0.286039         2.708091
 H        -0.817147        -1.180844         2.047840
