19
Iteration:   828
 O         0.696362         0.247165         0.100524
 C        -0.510350         0.436691         0.759503
 C        -1.898088         0.005981         0.023736
 C        -2.615108         1.011504         0.989630
 C        -1.185751         1.859604         0.892310
 C        -1.036836         2.518747         2.332661
 O        -1.856075         1.729647         3.150118
 C        -2.211740         0.540123         2.417016
 C        -0.835466        -0.278853         2.070697
 H         1.253733        -0.206475         0.725491
 H        -1.724837         0.366099        -1.041286
 H        -2.261913        -1.011830        -0.084077
 H        -3.558956         1.443934         0.688275
 H        -1.070259         2.637646         0.185527
 H         0.030369         2.614665         2.670255
 H        -1.432101         3.592441         2.275152
 H        -2.955292        -0.142273         2.953136
 H        -0.130507        -0.194767         2.930937
 H        -0.970595        -1.342928         1.869160
