19
Iteration:  2949charge 0 multiplicity 1
 O         0.693362         0.445672         0.087975
 C        -0.604986         0.366540         0.727405
 C        -1.881135        -0.131124         0.075578
 C        -2.537884         0.950630         0.971577
 C        -1.209381         1.791364         0.872238
 C        -1.043276         2.502009         2.263102
 O        -1.860033         1.751140         3.130695
 C        -2.177939         0.573532         2.457188
 C        -0.855168        -0.190031         2.157042
 H         1.248253        -0.291564         0.417475
 H        -1.834986         0.208427        -0.925009
 H        -2.040739        -1.212939         0.133047
 H        -3.575061         1.280964         0.653951
 H        -1.196828         2.387162        -0.059405
 H         0.046283         2.437870         2.603009
 H        -1.396887         3.502412         2.348183
 H        -2.841321         0.008146         3.196340
 H         0.122986        -0.104172         2.718237
 H        -1.045839        -1.200799         2.134569
