19
Iteration:  4309charge 0 multiplicity 1
 O         0.719859         0.169374         0.161727
 C        -0.562372         0.430687         0.723077
 C        -1.840707         0.050936         0.025478
 C        -2.543584         1.016592         1.007645
 C        -1.180257         1.826319         0.907827
 C        -1.159034         2.599802         2.249114
 O        -1.880097         1.693476         3.225146
 C        -2.114055         0.445908         2.402884
 C        -0.846709        -0.222541         2.067915
 H         0.937469         0.823043        -0.427835
 H        -1.861654         0.401778        -1.001100
 H        -2.195936        -1.021392        -0.002564
 H        -3.512573         1.454736         0.911592
 H        -1.123188         2.602716         0.023427
 H        -0.171715         2.693335         2.802178
 H        -1.671864         3.522898         2.234724
 H        -2.843858        -0.064109         2.976276
 H        -0.029009        -0.163767         2.877662
 H        -0.895269        -1.326126         1.826607
