19
Iteration:  4752
 O         0.634152         0.104149         0.059942
 C        -0.617347         0.457088         0.732142
 C        -1.856870         0.033165        -0.057237
 C        -2.493710         0.961582         1.037756
 C        -1.230906         1.945799         0.886069
 C        -0.972259         2.493772         2.352451
 O        -1.992967         1.688931         3.102519
 C        -2.154913         0.455205         2.452226
 C        -0.783323        -0.125793         2.163990
 H         1.337801         0.886919         0.156643
 H        -1.710616         0.447765        -1.053229
 H        -1.957486        -0.996119        -0.103280
 H        -3.500279         1.404450         0.908737
 H        -1.201933         2.586065         0.037415
 H        -0.028174         2.318393         2.886526
 H        -1.216617         3.620647         2.633090
 H        -2.790025        -0.115526         3.055900
 H        -0.052851         0.234331         2.921899
 H        -0.732467        -1.227575         2.153338
