19
Iteration:  3737
 O         0.731615         0.274901         0.116965
 C        -0.565886         0.353651         0.711066
 C        -1.883245        -0.033093        -0.026842
 C        -2.539349         1.007998         0.936666
 C        -1.304174         1.837568         0.898759
 C        -1.199813         2.581154         2.256909
 O        -1.821107         1.778744         3.214657
 C        -2.125771         0.553019         2.476936
 C        -0.761349        -0.287541         2.159143
 H         1.069901        -0.554343         0.156957
 H        -1.719890         0.194075        -1.059111
 H        -2.094338        -1.088276        -0.077742
 H        -3.472129         1.560347         0.776316
 H        -0.922096         2.435826         0.175780
 H        -0.101292         2.726111         2.477330
 H        -1.725806         3.536027         2.216339
 H        -2.914488         0.039999         3.075525
 H        -0.080136        -0.033634         2.946610
 H        -0.946997        -1.313543         2.068021
