19
Iteration:  3900
 O         0.664287         0.203298         0.104647
 C        -0.564154         0.441951         0.755021
 C        -1.841293         0.018926        -0.023209
 C        -2.502263         1.021615         0.980908
 C        -1.300583         1.915537         0.918295
 C        -1.001516         2.573211         2.299914
 O        -1.850547         1.652707         3.101337
 C        -2.145150         0.492674         2.396517
 C        -0.899328        -0.269892         2.214476
 H         1.255554         0.832689         0.382398
 H        -1.843245         0.215353        -1.074875
 H        -2.024555        -0.981068         0.056999
 H        -3.514175         1.273662         0.720576
 H        -1.231326         2.433748         0.022890
 H        -0.066165         2.607536         2.752921
 H        -1.497854         3.622409         2.333753
 H        -2.807552        -0.139767         3.016085
 H        -0.003337        -0.047735         2.841247
 H        -1.131676        -1.336979         2.157752
