19
Iteration:  4829charge 0 multiplicity 1
 O         0.698626         0.243248         0.314701
 C        -0.643608         0.396351         0.766848
 C        -1.829903         0.011569        -0.081742
 C        -2.541818         1.062099         1.031064
 C        -1.272254         1.858576         0.898183
 C        -1.169284         2.660295         2.170836
 O        -1.707591         1.663291         3.140783
 C        -2.125951         0.452960         2.413939
 C        -0.837998        -0.291769         2.144524
 H         0.707117        -0.200686        -0.528152
 H        -1.777841         0.631337        -0.969388
 H        -2.249536        -0.976590        -0.238912
 H        -3.602247         1.335857         0.851008
 H        -1.105514         2.425443        -0.034257
 H        -0.110538         2.864062         2.442406
 H        -1.896608         3.608433         2.308524
 H        -2.802463        -0.077810         3.074738
 H         0.023571        -0.073800         2.842425
 H        -0.880179        -1.334964         1.863563
