19
Iteration:   601charge 0 multiplicity 1
 O         0.629754         0.072798         0.047797
 C        -0.514695         0.485218         0.720169
 C        -1.801520         0.004117        -0.088327
 C        -2.506480         1.004048         0.972847
 C        -1.206194         1.927111         0.870733
 C        -1.044544         2.572247         2.385170
 O        -1.926744         1.691114         3.252574
 C        -2.211386         0.537599         2.447722
 C        -0.833906        -0.230658         2.128734
 H         1.506489         0.314452         0.625453
 H        -1.911787         0.480610        -1.151413
 H        -1.863490        -1.057247        -0.082212
 H        -3.438423         1.544769         0.724601
 H        -1.408686         2.604140         0.033329
 H        -0.003663         2.510319         2.718367
 H        -1.481813         3.716208         2.296888
 H        -3.128886         0.004444         2.924864
 H        -0.090860        -0.116084         2.972968
 H        -0.900928        -1.318997         1.898334
