19
Iteration:  3118
 O         0.683276         0.434444         0.212128
 C        -0.627098         0.369398         0.715799
 C        -1.927815        -0.107526        -0.021398
 C        -2.545754         0.929924         0.967291
 C        -1.258679         1.775053         0.842615
 C        -1.016950         2.518997         2.267501
 O        -1.861868         1.751006         3.134547
 C        -2.092098         0.563773         2.432784
 C        -0.770409        -0.172001         2.149835
 H         1.169485        -0.325166         0.655682
 H        -2.213755         0.170654        -1.082442
 H        -2.213272        -1.213898        -0.018788
 H        -3.604799         1.217599         0.973958
 H        -1.189257         2.436375        -0.171819
 H         0.079158         2.446763         2.630563
 H        -1.343732         3.513148         2.141501
 H        -2.764225        -0.104903         3.004806
 H        -0.135953         0.155860         2.968145
 H        -0.954216        -1.275710         2.109090
