19
Iteration:  3256charge 0 multiplicity 1
 O         0.703941         0.352870         0.069989
 C        -0.579341         0.440415         0.735218
 C        -1.860027        -0.079063         0.039173
 C        -2.539938         0.898134         0.952479
 C        -1.199296         1.832192         0.826253
 C        -1.001282         2.496986         2.170090
 O        -1.864579         1.774835         3.196129
 C        -2.230991         0.452689         2.485856
 C        -0.873125        -0.195044         2.178277
 H         1.289469         0.312277         0.828437
 H        -2.183410         0.064177        -1.016773
 H        -1.906675        -1.110109         0.285001
 H        -3.495185         1.394689         0.884603
 H        -1.266269         2.477220         0.014104
 H        -0.033544         2.446700         2.598911
 H        -1.414515         3.594072         2.166413
 H        -3.010066         0.048989         3.079698
 H        -0.226712         0.360515         2.914560
 H        -0.670093        -1.278109         2.342201
