19
Iteration:  2488charge 0 multiplicity 1
 O         0.646646         0.223875         0.086176
 C        -0.496616         0.426771         0.798306
 C        -1.848557         0.044924         0.026274
 C        -2.533247         0.911842         1.024642
 C        -1.340568         1.822495         0.941223
 C        -1.167285         2.664834         2.153088
 O        -1.770998         1.673480         3.116151
 C        -2.158712         0.512676         2.439438
 C        -0.754179        -0.222930         2.132930
 H         1.250380        -0.119392         0.796280
 H        -1.892401         0.533162        -0.987635
 H        -1.998141        -1.035939        -0.045584
 H        -3.445077         1.300648         0.704481
 H        -1.391338         2.281008        -0.022839
 H        -0.170465         2.881237         2.441226
 H        -1.859937         3.602854         2.313119
 H        -2.787171         0.058529         3.259986
 H        -0.054228         0.006593         3.061837
 H        -0.963880        -1.287113         2.056986
