19
Iteration:  2016charge 0 multiplicity 1
 O         0.695868         0.340094         0.187791
 C        -0.621145         0.440016         0.715508
 C        -1.836430        -0.127250        -0.032056
 C        -2.621079         0.845527         0.973708
 C        -1.388144         1.865323         0.867561
 C        -1.000002         2.484275         2.239329
 O        -1.776189         1.801123         3.171247
 C        -2.164756         0.541417         2.522037
 C        -0.812303        -0.094545         2.093547
 H         1.051816        -0.673839         0.320179
 H        -1.708420         0.190448        -1.076387
 H        -2.138872        -1.270864        -0.077947
 H        -3.540838         1.449954         0.748666
 H        -1.290880         2.513089        -0.076842
 H         0.041752         2.352603         2.677072
 H        -1.226576         3.487035         2.308792
 H        -2.862989        -0.003686         3.165208
 H         0.107302        -0.084371         2.802971
 H        -0.719296        -1.156785         1.922385
