19
Iteration:   121charge 0 multiplicity 1
 O         0.696021         0.057488         0.194111
 C        -0.534266         0.524035         0.750201
 C        -1.857106         0.058032        -0.043888
 C        -2.522158         0.998372         0.927293
 C        -1.208733         1.969579         0.906892
 C        -1.021070         2.515150         2.386245
 O        -2.002500         1.698153         3.139097
 C        -2.098489         0.478971         2.429923
 C        -0.788210        -0.160358         2.095023
 H         0.367212        -0.529869        -0.608971
 H        -1.777006         0.556795        -0.986127
 H        -2.155943        -0.963906        -0.157039
 H        -3.497786         1.405540         0.782481
 H        -1.192930         2.678265         0.110462
 H        -0.080104         2.375328         2.870666
 H        -1.497191         3.587490         2.561856
 H        -2.808558        -0.125888         3.012868
 H        -0.037659         0.007663         2.841292
 H        -0.948322        -1.179662         1.837993
