19
Iteration:  1567charge 0 multiplicity 1
 O         0.624316         0.252539         0.142980
 C        -0.593545         0.495578         0.759435
 C        -1.790479         0.058825        -0.020768
 C        -2.501546         0.933120         1.004123
 C        -1.317606         1.898735         0.873068
 C        -1.056357         2.502741         2.282831
 O        -1.800722         1.683983         3.143137
 C        -2.132370         0.498783         2.405653
 C        -0.872357        -0.252201         2.117117
 H         1.321149         0.033107         0.886205
 H        -1.815848         0.657879        -0.957176
 H        -2.177040        -1.031370        -0.040601
 H        -3.567200         1.330945         0.868015
 H        -1.093855         2.506257        -0.023851
 H         0.067488         2.461676         2.509754
 H        -1.482463         3.501075         2.300343
 H        -2.926393        -0.116200         2.941880
 H        -0.202455        -0.112703         2.943813
 H        -1.025313        -1.332549         1.944839
