19
Iteration:  4771
 O         0.634581         0.286331         0.122819
 C        -0.609618         0.423979         0.741895
 C        -1.890831         0.031383        -0.000525
 C        -2.540538         1.010169         0.956444
 C        -1.222421         1.792350         0.956473
 C        -1.008895         2.380747         2.281337
 O        -1.969609         1.784411         3.138364
 C        -2.114718         0.521839         2.410059
 C        -0.726228        -0.217210         2.114396
 H         1.332947         0.648469         0.750424
 H        -1.991699         0.407397        -1.105360
 H        -2.378578        -1.053893         0.011031
 H        -3.579241         1.291372         0.813034
 H        -1.071679         2.437243         0.144040
 H         0.038170         2.169732         2.580747
 H        -1.044296         3.522587         2.288845
 H        -2.811401        -0.095331         2.925269
 H         0.046431         0.058490         2.804416
 H        -0.724159        -1.326700         2.096368
