19
Iteration:   417
 O         0.678362         0.066561         0.084254
 C        -0.582134         0.409002         0.754858
 C        -1.892750         0.061937        -0.059424
 C        -2.541994         1.014164         1.007867
 C        -1.123869         1.914566         0.916540
 C        -1.052985         2.542229         2.369561
 O        -2.061366         1.705674         3.133068
 C        -2.108847         0.520785         2.435657
 C        -0.734520        -0.151294         2.094435
 H         1.321123         0.267753         0.716636
 H        -1.696383         0.612563        -1.110753
 H        -2.264628        -0.949246        -0.202208
 H        -3.529628         1.530175         0.907798
 H        -1.022602         2.522039        -0.015924
 H         0.022917         2.350285         2.785208
 H        -1.355197         3.523037         2.473312
 H        -2.932091        -0.176052         2.865996
 H         0.087391        -0.051363         2.846716
 H        -0.960280        -1.218207         2.030251
