19
Iteration:  4620charge 0 multiplicity 1
 O         0.746407         0.336412         0.149699
 C        -0.519947         0.389328         0.716645
 C        -1.967428        -0.032847        -0.011628
 C        -2.496615         1.023400         0.985091
 C        -1.168373         1.824346         0.884278
 C        -1.049008         2.426912         2.350933
 O        -1.936196         1.697425         3.166302
 C        -2.178068         0.520714         2.404672
 C        -0.810826        -0.242586         2.136729
 H         0.558000         0.822438        -0.711852
 H        -1.947902         0.467697        -0.979945
 H        -2.417527        -0.940136        -0.070798
 H        -3.449078         1.628740         1.055266
 H        -1.011349         2.616695         0.184881
 H        -0.072222         2.332117         2.819107
 H        -1.253530         3.463870         2.288161
 H        -3.018664        -0.037211         2.793252
 H        -0.119732         0.056998         2.918002
 H        -0.839199        -1.360999         2.063468
