19
Iteration:  3369charge 0 multiplicity 1
 O         0.739544         0.178149         0.026639
 C        -0.553493         0.448225         0.690884
 C        -1.878404        -0.049376         0.063253
 C        -2.578380         0.914948         0.985644
 C        -1.248595         1.860761         0.876200
 C        -1.027620         2.477965         2.200196
 O        -1.984473         1.775099         3.178848
 C        -2.176796         0.527949         2.487634
 C        -0.735581        -0.088908         2.239328
 H         1.399236         0.608339         0.542792
 H        -2.042654         0.196437        -0.950035
 H        -2.022692        -1.099844         0.148382
 H        -3.602583         1.314028         0.905508
 H        -1.121970         2.497386        -0.145171
 H        -0.064436         2.453341         2.684184
 H        -1.543741         3.487767         2.100010
 H        -2.919482        -0.177933         2.978508
 H         0.119208         0.042377         2.848043
 H        -0.794314        -1.164751         2.090924
