19
Iteration:   220charge 0 multiplicity 1
 O         0.644134         0.151999         0.267044
 C        -0.612494         0.461516         0.691330
 C        -1.820094         0.004602        -0.043850
 C        -2.480061         1.037195         0.949786
 C        -1.247944         1.918016         0.840077
 C        -1.047811         2.459631         2.260702
 O        -1.764680         1.629949         3.208689
 C        -2.241829         0.556821         2.380549
 C        -0.901253        -0.209574         2.168768
 H         1.221616         0.941989         0.243893
 H        -1.754734         0.327606        -1.123773
 H        -2.094208        -1.032991        -0.017414
 H        -3.416962         1.409943         0.551542
 H        -1.230505         2.608423         0.001732
 H        -0.002053         2.522656         2.520020
 H        -1.438384         3.599567         2.431033
 H        -3.045755         0.040797         2.994253
 H        -0.125408         0.102682         2.892935
 H        -0.862817        -1.272668         1.943698
