19
Iteration:  4991
 O         0.684868         0.315512         0.160181
 C        -0.544880         0.355516         0.754828
 C        -1.830257        -0.031482         0.040471
 C        -2.525874         0.940584         0.980746
 C        -1.282083         1.809887         0.879275
 C        -1.215335         2.657870         2.160673
 O        -1.745206         1.758075         3.164544
 C        -2.149456         0.546708         2.475871
 C        -0.842010        -0.292729         2.140626
 H         1.144715        -0.438385         0.469569
 H        -1.997306         0.248873        -1.079141
 H        -1.953773        -1.217435         0.113033
 H        -3.447860         1.522211         0.734028
 H        -1.049303         2.301143        -0.038217
 H        -0.185303         3.083255         2.322096
 H        -1.912823         3.461032         2.159472
 H        -2.871739         0.031302         3.096326
 H         0.072478        -0.129766         2.753594
 H        -1.046327        -1.361560         2.098166
