19
Iteration:   741charge 0 multiplicity 1
 O         0.636959         0.254843         0.091783
 C        -0.566314         0.418571         0.780832
 C        -1.794641         0.028810         0.056650
 C        -2.515708         1.052701         1.003305
 C        -1.193101         1.818426         0.985473
 C        -1.048778         2.519628         2.301161
 O        -1.940232         1.734455         3.107582
 C        -2.183748         0.542195         2.384092
 C        -0.794013        -0.274503         2.076128
 H         0.789596        -0.610021        -0.175686
 H        -1.636887         0.458602        -1.007935
 H        -2.074735        -1.026076         0.105676
 H        -3.467141         1.583904         0.827209
 H        -1.008001         2.412644         0.086275
 H        -0.008099         2.440160         2.731502
 H        -1.423182         3.441861         2.413977
 H        -3.074686         0.041411         2.910815
 H         0.007569         0.020190         2.800313
 H        -0.993943        -1.347745         2.077869
