19
Iteration:   811
 O         0.663489         0.333923         0.194768
 C        -0.611294         0.341495         0.756103
 C        -1.875447         0.013071        -0.046062
 C        -2.443598         1.064753         0.977934
 C        -1.271101         1.915039         0.940707
 C        -1.012806         2.575502         2.264216
 O        -1.856768         1.687733         3.123321
 C        -2.137515         0.485596         2.393652
 C        -0.879772        -0.319692         2.120391
 H         1.026977        -0.450144         0.466498
 H        -2.000836         0.352494        -1.102347
 H        -2.076121        -1.069188         0.143586
 H        -3.452865         1.494284         1.021808
 H        -1.110980         2.363991        -0.078003
 H         0.028369         2.340713         2.541045
 H        -1.408790         3.574621         2.389110
 H        -2.962243         0.048832         2.881065
 H        -0.064590         0.028765         2.768640
 H        -1.002966        -1.424806         2.007306
