19
Iteration:  3742charge 0 multiplicity 1
 O         0.730155         0.273247         0.086477
 C        -0.580800         0.356729         0.717229
 C        -1.826883        -0.021157        -0.023058
 C        -2.562922         1.026173         0.933436
 C        -1.317945         1.786370         0.926377
 C        -1.184704         2.604225         2.247116
 O        -1.796776         1.770071         3.231769
 C        -2.174127         0.524983         2.476072
 C        -0.788507        -0.253593         2.149296
 H         1.210597        -0.621743         0.430356
 H        -1.725758         0.229522        -1.116939
 H        -2.152995        -1.155484         0.072145
 H        -3.472772         1.558616         0.621332
 H        -0.981059         2.539639         0.060181
 H        -0.073409         2.671578         2.437121
 H        -1.650262         3.616066         2.323115
 H        -2.953829         0.006161         3.010925
 H        -0.000009         0.112706         2.865128
 H        -0.799958        -1.421298         2.100186
