19
Iteration:   555
 O         0.621456         0.222863         0.071576
 C        -0.528207         0.431556         0.723028
 C        -1.963238         0.034409         0.020188
 C        -2.378628         1.088112         1.040612
 C        -1.134443         1.868958         0.908586
 C        -1.096377         2.468323         2.303216
 O        -1.971565         1.675452         3.063433
 C        -2.159353         0.522237         2.398857
 C        -0.759092        -0.247216         2.198450
 H         1.384029         0.171507         0.774115
 H        -1.983987         0.460003        -0.987217
 H        -2.487568        -0.951005         0.166343
 H        -3.336844         1.718127         0.846736
 H        -1.065941         2.319422        -0.106525
 H        -0.117090         2.354468         2.818534
 H        -1.618856         3.538129         2.503068
 H        -3.113960        -0.057838         2.770411
 H         0.041375        -0.071698         2.957778
 H        -0.764336        -1.343500         1.985203
