19
Iteration:  3502
 O         0.767405         0.381678         0.137127
 C        -0.570095         0.407924         0.630433
 C        -1.961777        -0.149673         0.054907
 C        -2.493339         0.986792         0.987027
 C        -1.209884         1.753044         0.903417
 C        -1.097128         2.491079         2.203185
 O        -1.931523         1.787936         3.154364
 C        -2.162119         0.521265         2.479408
 C        -0.779205        -0.132582         2.174886
 H         1.041099        -0.569839         0.305049
 H        -2.083554        -0.026712        -0.976176
 H        -2.181085        -1.177758         0.262229
 H        -3.425666         1.480195         0.819179
 H        -1.221062         2.455564        -0.094248
 H        -0.051625         2.448653         2.540648
 H        -1.399524         3.667549         2.172269
 H        -2.839338        -0.094517         3.033720
 H        -0.005439         0.300731         2.771391
 H        -0.820115        -1.214515         2.313178
