19
Iteration:  4777
 O         0.682838         0.338228         0.107513
 C        -0.608064         0.390891         0.742726
 C        -1.942573         0.021279        -0.009425
 C        -2.514947         0.999417         0.996727
 C        -1.242840         1.764615         0.928277
 C        -0.981374         2.433451         2.253205
 O        -1.957230         1.752120         3.176692
 C        -2.131385         0.566375         2.384535
 C        -0.779436        -0.246601         2.092786
 H         1.421262         0.467477         0.846409
 H        -1.901266         0.348960        -0.988249
 H        -2.145967        -0.994273         0.155481
 H        -3.548470         1.314734         0.778848
 H        -1.060823         2.425325        -0.021435
 H        -0.028650         2.176985         2.766907
 H        -1.105700         3.476402         2.258377
 H        -2.830730        -0.108504         3.017712
 H        -0.028899         0.138442         2.848205
 H        -0.875645        -1.332596         2.130118
