19
Iteration:  3577charge 0 multiplicity 1
 O         0.703261         0.269469         0.258220
 C        -0.580056         0.414489         0.706748
 C        -1.944357        -0.073868        -0.033690
 C        -2.545551         0.952671         1.003782
 C        -1.256788         1.850224         0.937394
 C        -1.154946         2.610569         2.198034
 O        -1.862918         1.780989         3.111034
 C        -2.028980         0.522789         2.459090
 C        -0.730296        -0.237107         2.097336
 H         0.995147        -0.602076         0.293712
 H        -2.156978         0.084011        -1.059065
 H        -2.220424        -1.139422         0.183477
 H        -3.500581         1.385937         0.862479
 H        -1.185516         2.507630        -0.029873
 H        -0.173837         2.899858         2.481521
 H        -1.863989         3.511649         2.089199
 H        -2.670460        -0.085839         3.062016
 H         0.106376         0.066609         2.730253
 H        -0.774998        -1.397016         2.068567
