19
Iteration:  4532charge 0 multiplicity 1
 O         0.689650         0.338734         0.080359
 C        -0.585093         0.438888         0.752139
 C        -1.861871         0.059848        -0.034270
 C        -2.538306         0.998232         0.951340
 C        -1.261454         1.849827         0.913505
 C        -1.024915         2.587806         2.264522
 O        -1.841239         1.628525         3.232350
 C        -2.203291         0.462220         2.453925
 C        -0.843839        -0.284771         2.104768
 H         1.255391        -0.200439         0.593332
 H        -1.801540         0.349172        -1.100322
 H        -2.078598        -0.938040         0.139246
 H        -3.482954         1.602345         0.739880
 H        -1.001227         2.505626         0.084843
 H        -0.034998         2.515978         2.710355
 H        -1.330598         3.551001         2.250150
 H        -3.025861        -0.097297         2.990774
 H        -0.112164        -0.233558         2.886924
 H        -1.033770        -1.364130         1.840969
