19
Iteration:   684
 O         0.635397         0.253936         0.179338
 C        -0.587844         0.501096         0.739383
 C        -1.891115         0.060048        -0.041576
 C        -2.501181         0.973696         0.992625
 C        -1.183397         1.958656         0.930713
 C        -0.946978         2.538030         2.254156
 O        -1.894489         1.723965         3.129895
 C        -2.166789         0.366185         2.406835
 C        -0.874655        -0.269485         2.128567
 H         1.151111        -0.394633         0.749646
 H        -1.932830         0.316494        -1.086048
 H        -2.177508        -1.047466        -0.065607
 H        -3.589950         1.379692         0.893181
 H        -1.041556         2.520889        -0.045304
 H         0.103742         2.611137         2.564125
 H        -1.336533         3.484851         2.379702
 H        -3.082566        -0.087576         2.893052
 H        -0.145442        -0.087100         2.919972
 H        -0.876071        -1.367339         1.931724
