19
Iteration:  3070charge 0 multiplicity 1
 O         0.705878         0.341650         0.098330
 C        -0.598025         0.366925         0.742626
 C        -1.831652        -0.110863         0.002897
 C        -2.500274         0.905647         0.992510
 C        -1.185974         1.868685         0.926846
 C        -1.138105         2.560532         2.260595
 O        -1.921071         1.788565         3.139848
 C        -2.099349         0.522209         2.502892
 C        -0.827844        -0.183077         2.156755
 H         0.765078        -0.528915        -0.463061
 H        -1.881857         0.167113        -1.019936
 H        -2.101159        -1.127485         0.033722
 H        -3.535340         1.254054         0.838265
 H        -1.057020         2.556270        -0.005182
 H        -0.053385         2.581927         2.488638
 H        -1.566325         3.604359         2.237638
 H        -2.832686        -0.105639         3.014393
 H         0.051519         0.076784         2.766405
 H        -1.064523        -1.205873         2.293078
