19
Iteration:   397
 O         0.766525         0.132211         0.087140
 C        -0.495858         0.415356         0.603340
 C        -1.922741         0.065671        -0.028389
 C        -2.463600         1.087972         0.978713
 C        -1.171940         1.829663         0.967500
 C        -1.099575         2.458050         2.344872
 O        -1.932607         1.739717         3.234143
 C        -2.231907         0.518431         2.405192
 C        -0.877344        -0.198617         2.092075
 H         1.287123         0.127868         1.007794
 H        -2.163407         0.367188        -1.122004
 H        -2.142081        -0.954499         0.194411
 H        -3.427820         1.552697         0.762036
 H        -1.141501         2.536287         0.106141
 H        -0.100810         2.569646         2.691999
 H        -1.477177         3.379322         2.070682
 H        -3.034157        -0.135447         2.830483
 H        -0.124553         0.274254         2.757710
 H        -0.756827        -1.281757         2.208740
