19
Iteration:  1952charge 0 multiplicity 1
 O         0.653190         0.231381         0.006187
 C        -0.584196         0.412844         0.754816
 C        -1.752421        -0.104362         0.027876
 C        -2.488772         0.976318         1.035612
 C        -1.235739         1.915545         0.864227
 C        -1.183311         2.598959         2.274666
 O        -1.818349         1.709213         3.219646
 C        -2.174065         0.500269         2.449769
 C        -0.851091        -0.154543         2.127464
 H         1.197296        -0.608926         0.333462
 H        -1.821304         0.231347        -1.027530
 H        -2.108077        -1.106865         0.012517
 H        -3.524767         1.253859         0.731588
 H        -1.155047         2.496558        -0.112097
 H        -0.106838         2.826558         2.541787
 H        -1.567736         3.774192         2.322886
 H        -2.931087        -0.022341         3.060037
 H        -0.117956         0.153038         3.038010
 H        -0.881343        -1.276509         2.083296
