19
Iteration:  2655charge 0 multiplicity 1
 O         0.715537         0.373736         0.023875
 C        -0.549116         0.413077         0.795166
 C        -1.877476        -0.073966         0.083822
 C        -2.550974         0.962862         0.980775
 C        -1.238677         1.800390         0.817493
 C        -1.103405         2.586492         2.194967
 O        -1.892728         1.742973         3.177400
 C        -2.167008         0.530827         2.511111
 C        -0.770408        -0.293011         2.174277
 H         1.323214        -0.193658         0.390171
 H        -1.942254         0.150829        -0.947412
 H        -2.008624        -1.184981        -0.027071
 H        -3.565267         1.458990         1.146024
 H        -1.215150         2.335507        -0.089770
 H        -0.132639         2.654983         2.620120
 H        -1.538550         3.709427         2.136109
 H        -2.971563         0.020511         3.028130
 H        -0.012847        -0.012944         2.962241
 H        -0.911522        -1.411299         1.879002
