19
Iteration:  4723charge 0 multiplicity 1
 O         0.721357         0.053920         0.042534
 C        -0.571425         0.382953         0.726706
 C        -1.876486         0.022079        -0.012724
 C        -2.479924         1.098021         0.975381
 C        -1.181306         1.897383         0.932616
 C        -1.232761         2.570877         2.350094
 O        -1.893012         1.705189         3.259930
 C        -2.199363         0.509306         2.441166
 C        -0.735737        -0.221528         2.070774
 H         1.106216         0.931635        -0.318166
 H        -1.675260         0.330845        -1.024539
 H        -2.156188        -1.099599        -0.043848
 H        -3.407993         1.637802         0.734966
 H        -0.889927         2.669770         0.078698
 H        -0.301376         2.932860         2.827210
 H        -1.815914         3.399648         2.239798
 H        -2.907986        -0.168836         3.078807
 H         0.046849        -0.097581         2.866825
 H        -0.823909        -1.294004         1.928582
