19
Iteration:  4034charge 0 multiplicity 1
 O         0.744136         0.248940         0.250769
 C        -0.575980         0.363871         0.705293
 C        -1.917707         0.043110        -0.046142
 C        -2.478477         0.994539         1.019316
 C        -1.206940         1.834202         0.883915
 C        -1.105815         2.548673         2.247775
 O        -1.853254         1.726795         3.170330
 C        -2.150842         0.509945         2.441082
 C        -0.855465        -0.297514         2.112230
 H         1.082722         0.954691        -0.210684
 H        -2.087356         0.477049        -1.006548
 H        -2.256762        -0.982950        -0.163929
 H        -3.514615         1.417451         0.870599
 H        -1.291349         2.552324        -0.006269
 H        -0.078940         2.627842         2.530276
 H        -1.653988         3.566135         2.223398
 H        -2.887892        -0.076104         3.003425
 H         0.001797        -0.205016         2.744935
 H        -0.962300        -1.402289         1.936394
