19
Iteration:   635
 O         0.660108         0.290532         0.200358
 C        -0.605147         0.376959         0.700554
 C        -1.972759         0.015471        -0.080384
 C        -2.525099         1.054007         0.997577
 C        -1.114749         1.818353         0.919627
 C        -1.052424         2.545180         2.274496
 O        -1.797016         1.651495         3.134767
 C        -2.153775         0.529324         2.394670
 C        -0.865244        -0.280636         2.150357
 H         1.349343         0.266204         0.911241
 H        -2.014612         0.489380        -1.121898
 H        -2.242491        -1.016116        -0.184448
 H        -3.394078         1.604881         0.816260
 H        -1.149705         2.383370         0.018174
 H        -0.153963         2.700370         2.855787
 H        -1.610203         3.633753         2.260010
 H        -3.020807         0.103364         2.890612
 H        -0.083902        -0.082194         2.925310
 H        -0.911311        -1.355622         1.993569
