19
Iteration:  2216
 O         0.778978         0.112159         0.129159
 C        -0.552679         0.374526         0.634920
 C        -1.949759         0.037056        -0.047111
 C        -2.544657         0.992805         1.090630
 C        -1.277951         1.868577         0.848787
 C        -1.173516         2.550191         2.189292
 O        -1.885277         1.721903         3.217588
 C        -2.060887         0.488980         2.426631
 C        -0.747403        -0.131245         2.148392
 H         1.179596         0.573523         0.828160
 H        -2.181529         0.463765        -1.132345
 H        -2.401598        -1.073648         0.083356
 H        -3.530697         1.315902         1.195637
 H        -1.182373         2.556114         0.084657
 H        -0.156405         2.726115         2.722983
 H        -1.631671         3.468720         2.052941
 H        -2.755076        -0.043929         3.071611
 H         0.044246         0.236422         2.890191
 H        -0.891722        -1.238362         2.161726
