19
Iteration:  4898charge 0 multiplicity 1
 O         0.616443         0.338082        -0.039505
 C        -0.555876         0.379531         0.822169
 C        -1.830518        -0.073243         0.097074
 C        -2.529820         0.963119         0.963643
 C        -1.185837         1.817512         0.906251
 C        -0.987832         2.458317         2.283365
 O        -2.008452         1.754691         3.106842
 C        -2.193467         0.497339         2.416692
 C        -0.737783        -0.082585         2.207984
 H         1.113892        -0.411650         0.318183
 H        -1.764060         0.316747        -0.880648
 H        -2.031215        -1.082524         0.034290
 H        -3.523328         1.442459         0.853536
 H        -0.912030         2.490397        -0.007708
 H         0.031408         2.270778         2.771399
 H        -1.192876         3.621732         2.185429
 H        -3.014493        -0.157804         2.913992
 H        -0.197051         0.212947         3.124753
 H        -0.886963        -1.192786         2.247297
