19
Iteration:   100
 O         0.709829         0.220780         0.150389
 C        -0.565885         0.307385         0.725552
 C        -1.861917         0.152398        -0.054596
 C        -2.472269         1.082269         1.035902
 C        -1.120913         1.802733         0.989630
 C        -1.105108         2.538791         2.289036
 O        -2.009394         1.756524         3.157293
 C        -2.173453         0.477467         2.376217
 C        -0.778349        -0.298832         2.112642
 H         0.803428        -0.537549        -0.484096
 H        -2.015191         0.683343        -0.994522
 H        -2.155595        -0.848165        -0.089832
 H        -3.399079         1.551475         1.202286
 H        -0.919811         2.364918         0.101312
 H        -0.155905         2.530764         2.809428
 H        -1.475780         3.599299         2.109765
 H        -2.963081        -0.106211         2.891267
 H        -0.075995         0.236562         2.691881
 H        -0.810714        -1.349337         2.162783
