19
Iteration:  2379
 O         0.721483         0.250007         0.005519
 C        -0.544241         0.439598         0.745743
 C        -1.986912        -0.062684         0.104850
 C        -2.459576         0.957940         1.027829
 C        -1.179339         1.822838         0.891424
 C        -1.170668         2.590378         2.242711
 O        -1.934438         1.745551         3.140570
 C        -2.182673         0.528705         2.451428
 C        -0.722909        -0.235358         2.172948
 H         1.474090         0.443921         0.466996
 H        -1.920380         0.208172        -0.997905
 H        -2.236284        -1.152051         0.079959
 H        -3.348976         1.475323         0.920676
 H        -1.274873         2.185402        -0.078404
 H        -0.137366         2.641658         2.573555
 H        -1.553779         3.659882         2.056539
 H        -2.896270        -0.073355         3.009614
 H         0.186086         0.011879         2.880563
 H        -0.827814        -1.317701         2.116735
