19
Iteration:  1776charge 0 multiplicity 1
 O         0.717230         0.295428        -0.003416
 C        -0.525236         0.412293         0.728674
 C        -1.854343        -0.057606         0.016681
 C        -2.558764         0.983235         0.955407
 C        -1.204323         1.853823         0.863374
 C        -1.094510         2.580067         2.287196
 O        -1.812181         1.726238         3.186505
 C        -2.220824         0.466906         2.451316
 C        -0.862353        -0.238473         2.187791
 H         1.376752        -0.041712         0.677313
 H        -1.937562         0.359231        -0.951092
 H        -2.285411        -1.026922         0.188666
 H        -3.549066         1.375779         0.863389
 H        -1.272466         2.519592         0.010302
 H        -0.124101         2.576364         2.654870
 H        -1.614395         3.586948         2.271074
 H        -2.861213        -0.049595         3.087278
 H        -0.256388         0.165214         3.083513
 H        -1.002613        -1.305624         2.301334
