19
Iteration:  2897
 O         0.662350         0.134007         0.119148
 C        -0.579198         0.371352         0.683743
 C        -1.911473         0.013083        -0.110363
 C        -2.481761         0.957593         1.041886
 C        -1.229251         1.830383         0.940923
 C        -1.200978         2.611614         2.239979
 O        -1.920879         1.780897         3.204119
 C        -2.058967         0.503526         2.450938
 C        -0.710303        -0.192792         2.113807
 H         1.263629         0.216625         0.807516
 H        -1.953446         0.561961        -1.083426
 H        -2.084217        -1.089954        -0.085040
 H        -3.501789         1.362095         1.075798
 H        -1.126207         2.521237         0.015018
 H        -0.176864         2.964594         2.537959
 H        -1.826502         3.467489         2.212677
 H        -2.702584        -0.058454         3.050699
 H         0.058756         0.114268         2.796479
 H        -0.649321        -1.332124         2.177316
