19
Iteration:  1277
 O         0.740014         0.208585         0.128816
 C        -0.589658         0.496143         0.740321
 C        -1.872804         0.054257        -0.012854
 C        -2.569425         0.947421         0.955015
 C        -1.240668         1.846061         0.944137
 C        -1.127883         2.527748         2.281528
 O        -1.743142         1.672187         3.150447
 C        -2.153522         0.536939         2.423057
 C        -0.892433        -0.255581         2.106137
 H         1.176685         0.110780         0.901911
 H        -1.877795         0.586717        -1.109469
 H        -2.283916        -0.952164        -0.084878
 H        -3.589938         1.326616         0.645400
 H        -1.177473         2.497819        -0.006839
 H        -0.045251         2.703718         2.656378
 H        -1.667924         3.471571         2.265871
 H        -2.830614         0.058347         3.143657
 H        -0.136297         0.088842         2.852038
 H        -1.049569        -1.316600         2.028683
