19
Iteration:  1415
 O         0.622826         0.323903         0.100629
 C        -0.579568         0.413338         0.770473
 C        -1.770353        -0.008520        -0.019092
 C        -2.510315         0.985008         0.957866
 C        -1.254568         1.848630         0.952995
 C        -1.055229         2.581415         2.288610
 O        -1.758466         1.708463         3.215900
 C        -2.222178         0.498970         2.402222
 C        -0.907670        -0.310885         2.071106
 H         1.447647         0.063839         0.696918
 H        -1.775506         0.467418        -1.009988
 H        -2.086264        -1.099942        -0.096399
 H        -3.514477         1.349355         0.606458
 H        -1.139280         2.310872        -0.014373
 H        -0.060737         2.973876         2.503892
 H        -1.755308         3.482579         2.185119
 H        -2.907164        -0.109480         3.077957
 H        -0.243709        -0.134299         2.968878
 H        -1.089738        -1.406659         1.939612
