19
Iteration:  4756
 O         0.619647         0.144298         0.081840
 C        -0.604776         0.437348         0.730194
 C        -1.865210         0.018605        -0.056575
 C        -2.516386         0.965475         1.012304
 C        -1.236432         1.946522         0.884089
 C        -0.965695         2.479149         2.360603
 O        -1.986126         1.722405         3.079373
 C        -2.154751         0.418260         2.468987
 C        -0.749380        -0.125388         2.167534
 H         1.203779         0.797221         0.295677
 H        -1.696646         0.490157        -0.997698
 H        -2.044615        -1.082427        -0.139063
 H        -3.464296         1.523217         0.957892
 H        -1.092237         2.699710        -0.013413
 H         0.021111         2.251371         2.839423
 H        -1.199860         3.440161         2.584850
 H        -2.937556        -0.155164         3.134880
 H         0.046197         0.201576         2.884020
 H        -0.765850        -1.211724         2.073404
