19
Iteration:  2705
 O         0.749071         0.312633         0.141480
 C        -0.576390         0.457714         0.746558
 C        -1.820855        -0.039962         0.060223
 C        -2.596641         0.865157         1.004711
 C        -1.357100         1.797518         0.900971
 C        -1.033546         2.517882         2.184967
 O        -1.873110         1.770710         3.171766
 C        -2.200172         0.468646         2.455110
 C        -0.760257        -0.084537         2.124656
 H         0.896161        -0.706679        -0.161553
 H        -1.881301         0.380631        -1.009579
 H        -2.204087        -1.042944        -0.047141
 H        -3.480656         1.407077         0.762095
 H        -1.452703         2.484974         0.007524
 H         0.079799         2.428195         2.434566
 H        -1.214917         3.511643         2.147828
 H        -2.727994        -0.216969         3.214790
 H         0.037283         0.265176         2.821809
 H        -0.823111        -1.118390         2.108107
