19
Iteration:  4736
 O         0.673004         0.039864         0.025419
 C        -0.468517         0.453997         0.687687
 C        -1.799568         0.079289         0.020061
 C        -2.531782         0.991871         0.963964
 C        -1.225984         1.857524         0.997537
 C        -1.137503         2.513480         2.342388
 O        -1.945182         1.723078         3.257715
 C        -2.171301         0.513251         2.381246
 C        -0.780070        -0.147330         2.108479
 H         1.243914         0.799206        -0.193030
 H        -2.031248         0.521504        -1.014251
 H        -2.188154        -1.068553         0.074281
 H        -3.531788         1.412479         0.817247
 H        -1.151459         2.624586         0.142215
 H        -0.054764         2.520543         2.610853
 H        -1.506189         3.506216         2.270334
 H        -3.038846        -0.094535         2.836805
 H        -0.037238         0.170034         2.834818
 H        -0.867792        -1.245436         2.089164
