19
Iteration:  4848
 O         0.756984         0.106468         0.262231
 C        -0.531419         0.449020         0.725616
 C        -1.926514         0.090256        -0.054759
 C        -2.558059         0.906662         0.988689
 C        -1.217475         1.833740         0.870665
 C        -1.178752         2.604964         2.236053
 O        -1.804926         1.714531         3.201626
 C        -2.118500         0.527067         2.455971
 C        -0.814155        -0.234349         2.070829
 H         1.056791         0.612272        -0.550510
 H        -2.063976         0.643612        -1.068260
 H        -2.237899        -1.044981         0.071340
 H        -3.487120         1.452589         0.994581
 H        -1.304046         2.422413         0.025985
 H        -0.196491         2.935667         2.512646
 H        -1.835153         3.431490         2.250300
 H        -2.870968         0.012675         2.960701
 H        -0.047628         0.083176         2.753160
 H        -0.993967        -1.314874         2.131890
