19
Iteration:  2255charge 0 multiplicity 1
 O         0.577848         0.260906        -0.058806
 C        -0.551760         0.427496         0.756125
 C        -1.793238        -0.101538         0.065220
 C        -2.525769         0.935407         0.963004
 C        -1.232156         1.894749         0.920149
 C        -1.053532         2.516517         2.276959
 O        -1.924456         1.767294         3.151397
 C        -2.132105         0.529287         2.433581
 C        -0.800288        -0.200644         2.265365
 H         1.422447         0.229745         0.403513
 H        -1.648487         0.222925        -0.924571
 H        -1.824316        -1.140001         0.129769
 H        -3.588357         1.361978         0.910787
 H        -1.078888         2.590089         0.017342
 H        -0.018471         2.525533         2.450753
 H        -1.494134         3.581919         2.275660
 H        -2.924417        -0.118842         2.838012
 H        -0.147396         0.054821         3.113768
 H        -0.988450        -1.264850         2.144484
