19
Iteration:  2163
 O         0.691129         0.361007         0.004033
 C        -0.529615         0.368255         0.781952
 C        -1.849171        -0.076190         0.081118
 C        -2.515554         0.947574         0.999560
 C        -1.267331         1.797032         0.875788
 C        -1.099819         2.596864         2.189178
 O        -1.846271         1.750255         3.142280
 C        -2.174677         0.541264         2.491441
 C        -0.844653        -0.304976         2.174692
 H         1.336282         0.119208         0.570074
 H        -1.899420         0.502514        -0.875252
 H        -2.207508        -1.103393         0.057481
 H        -3.382604         1.534104         0.836238
 H        -1.141301         2.372012         0.002052
 H        -0.084439         2.613743         2.501220
 H        -1.519292         3.624653         2.249654
 H        -2.924527         0.128986         3.191468
 H        -0.139433        -0.104731         2.991838
 H        -1.079882        -1.395881         2.014814
