19
Iteration:  2721
 O         0.706138         0.274142         0.157305
 C        -0.571505         0.495052         0.710471
 C        -1.828858        -0.009298        -0.029514
 C        -2.545647         0.870967         1.108113
 C        -1.308974         1.855328         0.840493
 C        -1.107890         2.542030         2.227425
 O        -1.885101         1.780576         3.113969
 C        -2.089660         0.530670         2.485197
 C        -0.765338        -0.230268         2.170877
 H         0.801983        -0.643583        -0.238438
 H        -1.925745         0.352304        -1.028120
 H        -1.911381        -1.148435        -0.073895
 H        -3.679646         0.928221         1.008576
 H        -1.191885         2.470983        -0.028019
 H        -0.058837         2.537788         2.487667
 H        -1.583952         3.658859         2.325383
 H        -2.897070         0.074046         3.056742
 H        -0.071148         0.141986         2.944802
 H        -0.896417        -1.383791         2.062571
