19
Iteration:   380charge 0 multiplicity 1
 O         0.670442         0.232878         0.139291
 C        -0.600271         0.390048         0.768910
 C        -1.863199        -0.015762        -0.052237
 C        -2.511640         1.061012         0.924484
 C        -1.178763         1.901142         0.924569
 C        -1.044890         2.587261         2.297126
 O        -1.826540         1.637705         3.171862
 C        -2.218007         0.528810         2.345417
 C        -0.894636        -0.259447         2.149688
 H         1.407954        -0.025596         0.738854
 H        -1.762938         0.287319        -1.073813
 H        -2.245138        -1.082776         0.022932
 H        -3.477794         1.546117         0.817469
 H        -0.915656         2.517853         0.073833
 H         0.006725         2.652705         2.778881
 H        -1.500235         3.668640         2.512887
 H        -2.978920         0.031968         2.956010
 H        -0.176787         0.016748         2.928299
 H        -1.019692        -1.353143         1.977147
