19
Iteration:   827
 O         0.690655         0.254061         0.105597
 C        -0.518962         0.427993         0.754356
 C        -1.886508        -0.001730         0.021192
 C        -2.610558         1.018541         1.003082
 C        -1.190965         1.867584         0.897836
 C        -1.030584         2.518345         2.331159
 O        -1.855662         1.728682         3.141804
 C        -2.215081         0.538715         2.409375
 C        -0.829030        -0.285510         2.068356
 H         1.295330        -0.253676         0.741493
 H        -1.720913         0.348023        -1.006349
 H        -2.286732        -1.014979        -0.094807
 H        -3.584627         1.462543         0.685202
 H        -1.091546         2.665478         0.180223
 H         0.003926         2.639602         2.655790
 H        -1.420490         3.637179         2.290302
 H        -2.965165        -0.136187         2.953066
 H        -0.138993        -0.214310         2.924464
 H        -0.965975        -1.353819         1.896974
