19
Iteration:  2240charge 0 multiplicity 1
 O         0.595679         0.189156         0.024582
 C        -0.551710         0.415009         0.788904
 C        -1.818404        -0.000334         0.011618
 C        -2.479938         0.943529         1.044918
 C        -1.246464         1.809788         0.929649
 C        -1.112895         2.599712         2.264353
 O        -1.950500         1.780465         3.114499
 C        -2.114805         0.506550         2.470008
 C        -0.737879        -0.205926         2.090095
 H         1.423979         0.367640         0.692308
 H        -1.934476         0.353618        -1.060835
 H        -2.210462        -1.038724         0.160073
 H        -3.517936         1.215145         0.797412
 H        -1.153626         2.369388        -0.016320
 H        -0.122918         2.543653         2.769133
 H        -1.406555         3.629790         2.263692
 H        -2.770833        -0.044400         3.188512
 H         0.067653         0.125567         2.720325
 H        -0.853699        -1.347535         2.070778
