19
Iteration:  1382
 O         0.692965         0.205717         0.055465
 C        -0.524804         0.404949         0.740474
 C        -1.907809         0.054980         0.003308
 C        -2.449504         1.069292         0.969873
 C        -1.233984         1.839137         0.929093
 C        -1.072509         2.574331         2.309015
 O        -1.922782         1.720979         3.181426
 C        -2.151478         0.442245         2.423886
 C        -0.814275        -0.297523         2.098608
 H         1.372996         0.434062         0.782267
 H        -2.013735         0.492190        -0.959402
 H        -2.309112        -1.013784         0.034123
 H        -3.475894         1.437349         0.763550
 H        -1.187755         2.545156         0.121597
 H        -0.065411         2.867276         2.648531
 H        -1.794330         3.468166         2.230987
 H        -2.945031        -0.181325         2.964645
 H        -0.146975         0.013329         2.949776
 H        -0.798398        -1.434313         1.989377
