19
Iteration:  3476
 O         0.695278         0.245487         0.177358
 C        -0.548585         0.401921         0.714317
 C        -1.869406        -0.001876         0.044281
 C        -2.547429         0.882046         1.059485
 C        -1.307291         1.861982         0.883302
 C        -1.141837         2.631687         2.115492
 O        -1.900029         1.740276         3.141635
 C        -2.076270         0.549517         2.430533
 C        -0.711812        -0.229616         2.173063
 H         1.050122        -0.559860         0.536987
 H        -1.942440         0.629943        -0.917729
 H        -2.120099        -1.076319        -0.216224
 H        -3.629150         1.159918         0.991417
 H        -1.232767         2.438662        -0.010529
 H        -0.124288         2.750456         2.512645
 H        -1.596439         3.668343         1.999636
 H        -2.824332        -0.118691         2.964915
 H         0.110353         0.084043         2.891222
 H        -0.877328        -1.384279         2.110767
