19
Iteration:  2436
 O         0.725179         0.242530         0.071418
 C        -0.569911         0.431788         0.748139
 C        -1.921749        -0.094511         0.065909
 C        -2.554728         1.021765         1.080271
 C        -1.273085         1.873201         0.843694
 C        -1.124047         2.508569         2.210894
 O        -1.871443         1.712839         3.114021
 C        -2.134810         0.492785         2.416296
 C        -0.761590        -0.148490         2.118983
 H         1.387451         0.474054         0.864737
 H        -1.796430         0.236178        -0.968100
 H        -2.057712        -1.258237         0.266168
 H        -3.583250         1.394281         1.105388
 H        -1.170628         2.400087        -0.042093
 H        -0.043687         2.622862         2.571244
 H        -1.567989         3.507972         2.220896
 H        -2.860796        -0.071870         3.070683
 H        -0.009047         0.189774         2.894225
 H        -0.776706        -1.294664         2.240707
