19
Iteration:   386charge 0 multiplicity 1
 O         0.725234         0.204748         0.105206
 C        -0.624574         0.400766         0.711868
 C        -1.867903         0.004655        -0.074584
 C        -2.508795         1.068088         0.950211
 C        -1.158500         1.888789         0.948782
 C        -1.036256         2.580124         2.325171
 O        -1.854399         1.670438         3.201725
 C        -2.220108         0.489665         2.360963
 C        -0.887734        -0.250212         2.137507
 H         1.376836         0.003390         0.916833
 H        -1.918785         0.107936        -1.205430
 H        -2.193145        -0.996166         0.123857
 H        -3.469273         1.582707         0.814458
 H        -1.077360         2.564134         0.068788
 H        -0.038928         2.709055         2.657292
 H        -1.523712         3.523334         2.402510
 H        -3.138931         0.052492         2.794283
 H        -0.231947         0.112141         2.941842
 H        -0.964540        -1.338916         2.261720
