19
Iteration:  3521charge 0 multiplicity 1
 O         0.598165         0.414731         0.125819
 C        -0.583298         0.390182         0.848331
 C        -1.835170        -0.164162         0.125759
 C        -2.573286         0.933548         0.974801
 C        -1.196861         1.854795         0.793095
 C        -0.948285         2.477655         2.222268
 O        -1.943107         1.760235         3.127717
 C        -2.172592         0.548688         2.388607
 C        -0.750618        -0.131443         2.151801
 H         1.083316        -0.381340         0.066460
 H        -1.819751         0.114543        -0.937419
 H        -2.151351        -1.236850         0.338433
 H        -3.606741         1.091863         0.758301
 H        -1.008071         2.354768        -0.200604
 H         0.073846         2.488862         2.562941
 H        -1.338868         3.528862         2.447502
 H        -2.980901        -0.035264         2.876182
 H        -0.058195         0.173484         2.947082
 H        -0.852631        -1.288869         2.040072
