19
Iteration:   494charge 0 multiplicity 1
 O         0.693151         0.218948         0.235878
 C        -0.607452         0.426644         0.784473
 C        -1.891054         0.105086        -0.008679
 C        -2.637127         1.046789         1.016662
 C        -1.230506         1.837145         0.879757
 C        -1.012050         2.579739         2.231749
 O        -1.837070         1.671727         3.100010
 C        -2.154055         0.472541         2.392162
 C        -0.782494        -0.323664         2.064260
 H         1.296336         0.316779         1.094215
 H        -1.897793         0.592810        -1.061332
 H        -2.233680        -0.925073        -0.005253
 H        -3.621164         1.471749         0.865689
 H        -1.109939         2.353879        -0.083856
 H         0.118765         2.677509         2.611358
 H        -1.437663         3.555897         2.198347
 H        -2.985836        -0.006272         2.949962
 H        -0.093464        -0.128156         2.904031
 H        -0.851644        -1.386874         1.837818
