19
Iteration:  4244charge 0 multiplicity 1
 O         0.812808         0.256661         0.197766
 C        -0.582572         0.426228         0.677447
 C        -1.949109         0.014215        -0.027188
 C        -2.452289         1.016302         1.020426
 C        -1.198242         1.869056         0.935859
 C        -1.086225         2.533975         2.323350
 O        -1.922068         1.690371         3.152315
 C        -2.192784         0.452817         2.453150
 C        -0.842857        -0.192722         2.080674
 H         0.816745         0.244179        -0.833460
 H        -2.074801         0.259064        -1.026455
 H        -2.388090        -0.986535         0.051877
 H        -3.381921         1.471387         0.793886
 H        -1.314475         2.462833        -0.072305
 H        -0.101559         2.362802         2.719188
 H        -1.341538         3.562335         2.202463
 H        -2.814685        -0.181796         3.040509
 H        -0.092105         0.030787         2.917245
 H        -0.800852        -1.306531         2.061395
