19
Iteration:  3996charge 0 multiplicity 1
 O         0.737332         0.189345         0.234477
 C        -0.577129         0.440577         0.647308
 C        -1.855437         0.001903        -0.041598
 C        -2.443314         0.935306         0.950154
 C        -1.227093         1.963890         0.885419
 C        -1.163994         2.582550         2.339352
 O        -1.765494         1.677692         3.201289
 C        -2.201310         0.478652         2.407450
 C        -0.866006        -0.253679         2.150362
 H         0.555584         0.142267        -0.677713
 H        -2.141745         0.504977        -1.034375
 H        -2.237366        -1.051074        -0.110343
 H        -3.369088         1.381075         0.686862
 H        -1.170944         2.581932         0.080707
 H        -0.096908         2.939262         2.643027
 H        -1.754688         3.475987         2.425633
 H        -3.114224         0.215730         2.963503
 H        -0.148588        -0.021653         3.015282
 H        -0.942679        -1.329681         1.994385
