19
Iteration:  3477charge 0 multiplicity 1
 O         0.711548         0.244097         0.174120
 C        -0.544090         0.398073         0.722853
 C        -1.883651        -0.003785         0.038579
 C        -2.557355         0.876555         1.056293
 C        -1.314221         1.859648         0.881051
 C        -1.130782         2.634142         2.125926
 O        -1.903383         1.739928         3.138706
 C        -2.080082         0.550469         2.430922
 C        -0.711603        -0.227714         2.175336
 H         1.067301        -0.522674         0.490438
 H        -1.957478         0.593013        -0.902778
 H        -2.150651        -1.058856        -0.213963
 H        -3.611952         1.173619         1.013802
 H        -1.206323         2.479879        -0.055066
 H        -0.130027         2.747816         2.539501
 H        -1.604903         3.711955         1.984509
 H        -2.807819        -0.108218         2.987122
 H         0.088484         0.083845         2.892619
 H        -0.849772        -1.381987         2.099855
