19
Iteration:  1620charge 0 multiplicity 1
 O         0.693214         0.360422         0.170090
 C        -0.621333         0.420860         0.759872
 C        -1.911571         0.029935         0.015908
 C        -2.541687         1.027428         1.001973
 C        -1.207407         1.863146         0.928406
 C        -1.011140         2.517248         2.237585
 O        -1.929842         1.676349         3.103122
 C        -2.163001         0.483596         2.397977
 C        -0.725865        -0.262703         2.119776
 H         0.906833        -0.634758         0.140374
 H        -1.832251         0.249372        -1.013306
 H        -2.293333        -1.035850         0.185613
 H        -3.578643         1.521061         0.888372
 H        -1.095702         2.500385         0.020590
 H         0.019536         2.328510         2.612384
 H        -1.322478         3.627308         2.384364
 H        -2.916682        -0.175791         2.970633
 H        -0.073828         0.010107         2.932175
 H        -0.739631        -1.415331         1.979772
