19
Iteration:  2646
 O         0.712860         0.322325         0.030332
 C        -0.558728         0.426950         0.739101
 C        -1.817115        -0.063377         0.004977
 C        -2.539328         0.916724         1.025427
 C        -1.301651         1.858829         0.843162
 C        -1.160814         2.548756         2.190931
 O        -1.838584         1.782554         3.209668
 C        -2.145403         0.513551         2.476409
 C        -0.813297        -0.261518         2.220385
 H         1.324483        -0.222793         0.452078
 H        -1.911153         0.504345        -0.920750
 H        -2.024851        -1.187822         0.085314
 H        -3.578077         1.332699         0.807235
 H        -1.142832         2.533431        -0.030856
 H        -0.110847         2.594888         2.444515
 H        -1.600565         3.601889         2.170710
 H        -2.838753         0.000227         3.048496
 H         0.037622        -0.161036         2.886653
 H        -1.002551        -1.438510         2.221293
