19
Iteration:  3499charge 0 multiplicity 1
 O         0.797978         0.366979         0.126511
 C        -0.561465         0.410269         0.654613
 C        -1.988365        -0.135981         0.026531
 C        -2.512982         0.991232         0.995195
 C        -1.211545         1.756651         0.902911
 C        -1.122938         2.506220         2.227582
 O        -1.913653         1.814338         3.128363
 C        -2.152062         0.484836         2.496094
 C        -0.779335        -0.130335         2.168491
 H         1.073920        -0.640727         0.337387
 H        -2.010993         0.019647        -1.068543
 H        -2.233925        -1.209117         0.274069
 H        -3.467058         1.448863         0.793447
 H        -1.269019         2.345633        -0.068220
 H        -0.056217         2.514644         2.478886
 H        -1.441394         3.632212         2.295349
 H        -2.856009        -0.128312         3.113973
 H         0.011646         0.326781         2.805726
 H        -0.849089        -1.286132         2.311758
