19
Iteration:  2427charge 0 multiplicity 1
 O         0.640796         0.212067         0.126260
 C        -0.563364         0.452857         0.682019
 C        -1.871662         0.000387         0.070325
 C        -2.534499         0.930193         0.995226
 C        -1.320910         1.900643         0.855119
 C        -1.047298         2.509343         2.193225
 O        -1.915576         1.717825         3.140131
 C        -2.123179         0.470868         2.452909
 C        -0.721707        -0.134618         2.193754
 H         1.441261         0.483171         0.741762
 H        -2.005396         0.171642        -0.965015
 H        -2.175116        -1.097820         0.181857
 H        -3.631857         1.215330         0.865395
 H        -1.198300         2.550885        -0.025369
 H         0.091024         2.498875         2.328849
 H        -1.374257         3.495913         2.216387
 H        -2.762781        -0.218638         3.032699
 H        -0.120651         0.231471         2.962703
 H        -0.577148        -1.257054         2.095429
