19
Iteration:  3091charge 0 multiplicity 1
 O         0.738717         0.380106         0.159584
 C        -0.566826         0.459664         0.789711
 C        -1.865604        -0.086768         0.095701
 C        -2.576808         0.965581         0.971507
 C        -1.305157         1.822256         0.824713
 C        -1.005790         2.503288         2.228127
 O        -1.880562         1.733477         3.130902
 C        -2.237247         0.531920         2.415459
 C        -0.717621        -0.204333         2.145626
 H         0.781532        -0.623223        -0.034931
 H        -2.017780         0.161985        -0.919020
 H        -2.101973        -1.116135         0.204910
 H        -3.611796         1.325990         0.805752
 H        -1.494434         2.390076        -0.103624
 H         0.003528         2.298307         2.517010
 H        -1.253565         3.629084         2.149542
 H        -2.934027        -0.073687         3.018747
 H        -0.174719         0.065293         3.095133
 H        -0.518679        -1.254514         1.981874
