19
Iteration:  2348
 O         0.611173         0.233406         0.070137
 C        -0.575652         0.428481         0.752654
 C        -1.867902        -0.061455         0.016398
 C        -2.495881         0.942395         0.941562
 C        -1.225349         1.860406         0.886194
 C        -1.219338         2.643088         2.204915
 O        -1.742709         1.698473         3.207480
 C        -2.138994         0.511755         2.449439
 C        -0.800700        -0.213156         2.170895
 H         1.393679         0.217978         0.788630
 H        -1.737219         0.350936        -1.022713
 H        -2.001308        -1.168241         0.375664
 H        -3.501435         1.240294         0.701179
 H        -1.157911         2.410321        -0.021320
 H        -0.123870         2.884076         2.489327
 H        -1.903192         3.501516         2.238399
 H        -2.934252        -0.025419         3.019752
 H         0.037969         0.161737         2.814720
 H        -0.976942        -1.314566         2.117381
