19
Iteration:  4047
 O         0.759508         0.207130         0.205470
 C        -0.582607         0.518198         0.712018
 C        -1.927760        -0.023944        -0.114837
 C        -2.618848         0.876608         0.962772
 C        -1.220149         1.849080         0.997654
 C        -0.983962         2.553858         2.267651
 O        -1.858611         1.715381         3.167578
 C        -2.183853         0.527428         2.459659
 C        -0.821256        -0.256734         2.085897
 H         0.987991         1.192443        -0.190088
 H        -1.865942         0.381032        -1.104965
 H        -2.083472        -1.137593         0.103708
 H        -3.642108         1.234319         0.795632
 H        -1.050692         2.489151        -0.021730
 H        -0.060009         2.573241         2.828326
 H        -1.232198         3.664636         2.170956
 H        -3.022488         0.098855         3.013411
 H        -0.164521         0.017937         2.921634
 H        -1.111643        -1.308066         2.079920
