19
Iteration:  3544
 O         0.708427         0.394393         0.073130
 C        -0.558592         0.409969         0.775447
 C        -1.818741        -0.085304        -0.031664
 C        -2.518176         0.925890         1.013530
 C        -1.315391         1.798628         0.908644
 C        -1.030821         2.468247         2.151152
 O        -1.898708         1.791550         3.104185
 C        -2.147654         0.531102         2.488865
 C        -0.827994        -0.221858         2.284501
 H         1.127675        -0.587838         0.051190
 H        -2.069143         0.233736        -1.005045
 H        -2.067004        -1.140007         0.228457
 H        -3.410745         1.433857         0.807910
 H        -1.353790         2.599316         0.036085
 H        -0.013172         2.515386         2.463274
 H        -1.404429         3.604648         2.098681
 H        -2.986751         0.168654         3.059975
 H        -0.186935         0.173015         3.067441
 H        -0.876149        -1.380803         2.278277
