19
Iteration:  3980
 O         0.758309         0.168185         0.162309
 C        -0.534804         0.428617         0.724907
 C        -1.783165        -0.020308        -0.088526
 C        -2.572251         1.039853         0.987774
 C        -1.279985         1.866427         0.944792
 C        -1.115347         2.564889         2.295484
 O        -1.846127         1.667721         3.268239
 C        -2.176760         0.559835         2.429410
 C        -0.898187        -0.178862         2.078831
 H         0.751482        -0.016756        -0.723347
 H        -1.705196         0.382519        -1.083412
 H        -1.894902        -1.136504         0.044823
 H        -3.635961         1.368223         0.843850
 H        -1.225166         2.595789        -0.008219
 H        -0.068622         2.598878         2.575358
 H        -1.476458         3.628717         2.347002
 H        -2.800259        -0.148329         2.979864
 H        -0.083499         0.022188         2.733692
 H        -1.022718        -1.287438         1.952354
