19
Iteration:  4670charge 0 multiplicity 1
 O         0.741176         0.315549         0.325720
 C        -0.614237         0.455438         0.670051
 C        -1.842731         0.077060        -0.095550
 C        -2.545485         0.925304         0.950268
 C        -1.359132         1.882372         0.879471
 C        -1.001980         2.520105         2.245363
 O        -1.743159         1.641775         3.248586
 C        -2.159639         0.507559         2.464969
 C        -0.924174        -0.237252         2.077648
 H         0.800444         0.001249        -0.654457
 H        -1.989030         0.444996        -1.152674
 H        -1.963041        -1.119268        -0.017466
 H        -3.523994         1.354460         0.747190
 H        -1.210912         2.519735        -0.021241
 H         0.098918         2.440441         2.428103
 H        -1.421371         3.606663         2.357642
 H        -2.903097        -0.173162         2.997734
 H        -0.117142        -0.166042         2.818992
 H        -1.259332        -1.281611         2.026496
