19
Iteration:  1223
 O         0.696146         0.258200         0.043403
 C        -0.549635         0.440362         0.729812
 C        -1.917702        -0.049789        -0.060343
 C        -2.456153         1.037557         1.070258
 C        -1.157265         1.834090         0.919322
 C        -1.005688         2.557718         2.265231
 O        -1.964693         1.683679         3.195910
 C        -2.183288         0.460731         2.409268
 C        -0.863422        -0.206612         2.149541
 H         1.346294         0.219800         0.667894
 H        -2.068673         0.526778        -1.081448
 H        -2.309792        -1.063427        -0.079674
 H        -3.475330         1.540725         1.016308
 H        -0.938571         2.459607        -0.033446
 H        -0.013146         2.666747         2.836833
 H        -1.454720         3.463004         2.163961
 H        -2.999021        -0.086575         2.902505
 H        -0.167887         0.086581         2.960444
 H        -0.920738        -1.267000         2.028381
