19
Iteration:  4734charge 0 multiplicity 1
 O         0.676276         0.036314         0.026809
 C        -0.465130         0.436784         0.688888
 C        -1.812750         0.070690         0.022442
 C        -2.529149         1.002231         0.955822
 C        -1.232324         1.857987         0.992063
 C        -1.158692         2.513259         2.340197
 O        -1.932559         1.734093         3.267218
 C        -2.186240         0.501869         2.386316
 C        -0.766225        -0.150494         2.097464
 H         1.282522         0.867666        -0.236738
 H        -1.971702         0.498507        -0.955381
 H        -2.163933        -1.016746         0.065463
 H        -3.501735         1.496243         0.803402
 H        -1.068139         2.684483         0.150766
 H        -0.081875         2.594772         2.656000
 H        -1.547302         3.449953         2.270461
 H        -3.069417        -0.092626         2.871380
 H         0.024901         0.127298         2.847070
 H        -0.892766        -1.227419         2.039631
