19
Iteration:  1241
 O         0.723417         0.180202         0.152006
 C        -0.598211         0.418597         0.740592
 C        -1.905585         0.102481        -0.008098
 C        -2.572984         0.995683         0.960058
 C        -1.250974         1.873891         0.934605
 C        -1.129811         2.519553         2.288150
 O        -1.846523         1.722346         3.131819
 C        -2.112537         0.520796         2.425513
 C        -0.764134        -0.268294         2.045776
 H         1.272893         0.059230         0.854893
 H        -1.894535         0.501858        -1.068829
 H        -2.203763        -0.948528         0.051487
 H        -3.571325         1.391829         0.823876
 H        -1.254362         2.554052         0.112396
 H        -0.080468         2.542379         2.592494
 H        -1.487232         3.626869         2.515966
 H        -2.795370        -0.129921         3.041815
 H         0.038400        -0.114245         2.845057
 H        -0.938382        -1.369332         2.055862
