19
Iteration:  4401charge 0 multiplicity 1
 O         0.716046         0.206813         0.212612
 C        -0.567545         0.440299         0.684506
 C        -1.903749         0.069540         0.010936
 C        -2.500666         1.061646         1.046159
 C        -1.153382         1.791804         0.934926
 C        -1.164578         2.531405         2.247444
 O        -1.898463         1.678428         3.189343
 C        -2.175059         0.485582         2.404184
 C        -0.732221        -0.272453         2.074041
 H         0.830362         0.569165        -0.706582
 H        -1.948065         0.471074        -1.022420
 H        -2.182897        -0.930011        -0.049173
 H        -3.508541         1.611243         0.988705
 H        -1.153825         2.544813         0.150216
 H        -0.111670         2.753886         2.572188
 H        -1.803076         3.437420         2.158544
 H        -3.022939        -0.101679         2.914804
 H         0.050635         0.061112         2.713592
 H        -0.755558        -1.374120         2.044145
