19
Iteration:  4477
 O         0.770010         0.348639         0.249906
 C        -0.600000         0.358876         0.669717
 C        -1.906688         0.012563        -0.043203
 C        -2.570490         1.028957         1.003275
 C        -1.287234         1.800570         0.896883
 C        -1.032360         2.433506         2.342137
 O        -1.894672         1.748253         3.178169
 C        -2.144826         0.493283         2.398157
 C        -0.774581        -0.215541         2.074465
 H         0.766760        -0.068220        -0.677291
 H        -2.002367         0.551264        -1.018447
 H        -2.257672        -0.983285        -0.186584
 H        -3.613355         1.497267         0.891846
 H        -1.077052         2.542771         0.104504
 H        -0.012699         2.282453         2.830754
 H        -1.241415         3.440792         2.266221
 H        -2.937426        -0.084997         2.978955
 H        -0.033085         0.168729         2.752736
 H        -0.696284        -1.332589         2.130778
