19
Iteration:  2871charge 0 multiplicity 1
 O         0.677726         0.154517        -0.028860
 C        -0.495358         0.418479         0.772098
 C        -1.804905        -0.023829         0.054780
 C        -2.513491         0.978247         1.032035
 C        -1.231751         1.847874         0.923417
 C        -1.199342         2.595276         2.225823
 O        -1.888849         1.706943         3.165536
 C        -2.161978         0.583726         2.429944
 C        -0.798782        -0.252545         2.171440
 H         1.333933         0.670358         0.321282
 H        -1.858132         0.369995        -0.941443
 H        -1.955406        -1.108959         0.098766
 H        -3.543175         1.433307         0.911901
 H        -1.058863         2.443776         0.063028
 H        -0.153059         2.949960         2.584082
 H        -1.790721         3.496340         2.247398
 H        -2.956865         0.004120         3.091652
 H        -0.183012        -0.028508         3.124756
 H        -0.884455        -1.279575         2.002779
