19
Iteration:  3597charge 0 multiplicity 1
 O         0.733688         0.238486         0.138462
 C        -0.565426         0.441459         0.764051
 C        -1.859544        -0.022380         0.112838
 C        -2.535318         0.958221         1.034545
 C        -1.297074         1.907474         0.778753
 C        -1.208673         2.636311         2.141460
 O        -1.775108         1.657470         3.157727
 C        -2.131178         0.470492         2.420092
 C        -0.796375        -0.171343         2.195771
 H         1.142338        -0.656025         0.470072
 H        -1.893870         0.327916        -0.930627
 H        -2.242926        -1.112188         0.022617
 H        -3.484368         1.437921         0.866243
 H        -1.273217         2.462507        -0.183305
 H        -0.163502         2.682654         2.485962
 H        -1.683199         3.581011         2.199603
 H        -2.977542        -0.026852         2.923627
 H        -0.149102         0.158247         3.005256
 H        -0.778130        -1.321839         2.043460
