19
Iteration:  2740
 O         0.676511         0.342036         0.156527
 C        -0.551882         0.328868         0.771269
 C        -1.899129        -0.075851         0.028401
 C        -2.493127         0.974337         0.949320
 C        -1.236394         1.835569         0.923657
 C        -1.167956         2.648795         2.183593
 O        -1.892977         1.772177         3.170631
 C        -2.050811         0.461936         2.490492
 C        -0.756991        -0.224559         2.123894
 H         0.770149        -0.603649        -0.335184
 H        -1.896910         0.325903        -0.981614
 H        -2.192946        -1.135242         0.059387
 H        -3.502031         1.519820         0.762165
 H        -1.257155         2.392841         0.020103
 H        -0.139610         2.792642         2.591880
 H        -1.748130         3.576034         2.088906
 H        -2.812241        -0.205509         3.114856
 H         0.177118        -0.124473         2.793331
 H        -0.950839        -1.238595         2.022032
