19
Iteration:  1667
 O         0.769388         0.213740         0.128423
 C        -0.549594         0.418073         0.743144
 C        -1.888564         0.057609         0.036082
 C        -2.495250         1.049951         1.021651
 C        -1.184828         1.831422         0.906210
 C        -1.122174         2.569706         2.268309
 O        -1.954540         1.717653         3.196082
 C        -2.148791         0.440169         2.457105
 C        -0.794185        -0.234379         2.090076
 H         0.587682        -0.199634        -0.844512
 H        -2.037533         0.490972        -1.088793
 H        -2.142459        -1.051854        -0.040554
 H        -3.483874         1.491722         0.934543
 H        -1.216289         2.405889        -0.019231
 H        -0.001361         2.796664         2.634857
 H        -1.687792         3.485135         2.138200
 H        -2.902250        -0.138020         2.939780
 H        -0.043946         0.041858         2.884848
 H        -0.798964        -1.307054         2.019793
