19
Iteration:  4140charge 0 multiplicity 1
 O         0.712404         0.130202         0.195189
 C        -0.528192         0.438422         0.786433
 C        -1.800718         0.126242         0.036651
 C        -2.547585         0.949004         0.938280
 C        -1.295887         1.897794         0.931817
 C        -1.204216         2.598566         2.282520
 O        -1.776049         1.666166         3.131905
 C        -2.150941         0.495694         2.404903
 C        -0.826252        -0.260648         2.111608
 H         0.547785         0.014422        -0.681896
 H        -1.676299         0.714335        -0.932707
 H        -2.145632        -0.897279        -0.062707
 H        -3.518303         1.486704         0.846904
 H        -1.166307         2.488242         0.091958
 H        -0.153044         2.874052         2.530568
 H        -1.695319         3.501679         2.325318
 H        -2.891798        -0.064072         3.042577
 H        -0.137627         0.025790         2.880985
 H        -0.788412        -1.325730         1.838679
