19
Iteration:  1466
 O         0.725597         0.238224         0.133542
 C        -0.601771         0.471930         0.627211
 C        -1.929008         0.012879        -0.088431
 C        -2.516091         0.999033         0.948619
 C        -1.202170         1.802010         0.921915
 C        -1.076455         2.482110         2.344909
 O        -1.909527         1.747579         3.215847
 C        -2.168147         0.503266         2.481624
 C        -0.802640        -0.201563         2.092408
 H         1.262137         0.132580         0.874821
 H        -2.064323         0.288592        -1.081203
 H        -1.996669        -1.121664        -0.073716
 H        -3.527783         1.310437         0.999642
 H        -1.142875         2.505817         0.074917
 H         0.024380         2.428697         2.546194
 H        -1.267991         3.537713         2.383945
 H        -2.987417        -0.085469         2.919817
 H        -0.138951         0.185172         2.797459
 H        -0.561435        -1.280526         2.037634
