19
Iteration:  1373charge 0 multiplicity 1
 O         0.630801         0.149834         0.113784
 C        -0.576409         0.412676         0.732367
 C        -1.868534         0.068896         0.026626
 C        -2.543291         1.007145         1.003962
 C        -1.202526         1.827634         0.953893
 C        -1.061373         2.621460         2.323482
 O        -1.957117         1.672656         3.158330
 C        -2.099278         0.477793         2.371388
 C        -0.767788        -0.231464         2.025656
 H         1.390430         0.466294         0.706019
 H        -1.845580         0.405030        -1.050172
 H        -2.089772        -0.949007        -0.049210
 H        -3.528831         1.555631         0.901549
 H        -1.120392         2.447633         0.045526
 H        -0.138246         2.674460         2.858802
 H        -1.437600         3.759441         2.351719
 H        -2.942135        -0.064747         2.861900
 H         0.035383         0.149836         2.782602
 H        -0.574161        -1.314994         1.997113
