19
Iteration:   180charge 0 multiplicity 1
 O         0.700161         0.263064         0.264891
 C        -0.601485         0.344121         0.771480
 C        -1.901942         0.083059        -0.010829
 C        -2.409132         1.077342         0.992967
 C        -1.206498         1.843249         0.898474
 C        -1.053017         2.481384         2.186229
 O        -1.937032         1.782711         3.108551
 C        -2.109056         0.496656         2.447735
 C        -0.869631        -0.429560         2.086126
 H         0.960551         1.189448         0.117203
 H        -1.985427         0.564312        -1.038444
 H        -2.354246        -0.884647        -0.112829
 H        -3.401026         1.611952         1.058116
 H        -1.097895         2.521880         0.002386
 H         0.027118         2.451415         2.549861
 H        -1.279400         3.520875         2.222525
 H        -3.020760         0.007552         2.866476
 H        -0.010452        -0.472137         2.782325
 H        -1.133048        -1.494843         2.126627
