19
Iteration:  4093
 O         0.769807         0.277125         0.201550
 C        -0.561501         0.412107         0.716526
 C        -1.973559        -0.028680        -0.005450
 C        -2.574442         1.051883         0.976487
 C        -1.154846         1.803894         0.928903
 C        -1.013436         2.514454         2.327286
 O        -1.965005         1.744195         3.114359
 C        -2.182985         0.451338         2.404673
 C        -0.757520        -0.203148         2.124997
 H         0.620961         0.396902        -0.797347
 H        -1.986225         0.364105        -1.060045
 H        -2.337724        -1.088036         0.141103
 H        -3.564104         1.401513         0.908624
 H        -1.008853         2.484942         0.064556
 H        -0.020467         2.537525         2.792378
 H        -1.317738         3.505808         2.404980
 H        -2.686904        -0.370524         2.851573
 H        -0.027240         0.173722         2.888826
 H        -0.823121        -1.260265         2.086467
