19
Iteration:  4642
 O         0.736871         0.420697         0.307295
 C        -0.633283         0.453819         0.699894
 C        -1.927437         0.039332        -0.009170
 C        -2.618504         0.969186         0.984827
 C        -1.267949         1.831014         0.889531
 C        -0.849630         2.405956         2.285517
 O        -1.919513         1.686366         3.107361
 C        -2.189701         0.483525         2.448367
 C        -0.804741        -0.257285         2.055454
 H         0.786057         0.204693        -0.624579
 H        -1.956592         0.290394        -1.057978
 H        -2.079629        -0.948503         0.109614
 H        -3.524458         1.592804         0.862417
 H        -1.134962         2.441153         0.018177
 H         0.148700         2.135610         2.628262
 H        -0.945930         3.452637         2.409853
 H        -2.852272        -0.151331         2.999829
 H        -0.045413         0.051577         2.764105
 H        -0.876879        -1.375174         2.021991
