19
Iteration:  2184charge 0 multiplicity 1
 O         0.571161         0.228790         0.086534
 C        -0.630807         0.475685         0.800712
 C        -1.761342        -0.062329         0.000684
 C        -2.567202         0.958830         0.997219
 C        -1.267381         1.891702         0.885005
 C        -1.119603         2.597455         2.217930
 O        -1.740302         1.725860         3.157647
 C        -2.154101         0.504807         2.393658
 C        -0.781584        -0.247671         2.172340
 H         1.340108         0.273806         0.788228
 H        -1.748153         0.234625        -1.120861
 H        -1.985463        -1.156040         0.250006
 H        -3.599453         1.147504         0.892641
 H        -1.093763         2.548401         0.095712
 H        -0.076712         2.769672         2.543012
 H        -1.602536         3.518080         2.064182
 H        -2.911921        -0.086284         2.937298
 H        -0.172051        -0.096554         3.094661
 H        -0.955667        -1.339033         1.944786
