19
Iteration:  1640charge 0 multiplicity 1
 O         0.687553         0.234648         0.139794
 C        -0.563186         0.437407         0.727382
 C        -1.822193         0.003030        -0.077636
 C        -2.532062         0.941536         0.935805
 C        -1.266832         1.882730         0.912788
 C        -1.080585         2.492485         2.379273
 O        -1.858623         1.739476         3.220432
 C        -2.131019         0.507279         2.428446
 C        -0.831228        -0.129256         2.126515
 H         0.719746        -0.680723        -0.397288
 H        -1.879002         0.509511        -0.959117
 H        -1.952910        -1.057196        -0.181832
 H        -3.605066         1.213272         0.746673
 H        -1.257889         2.531407         0.014387
 H        -0.056524         2.458313         2.533744
 H        -1.478061         3.564382         2.349768
 H        -2.918682        -0.087818         2.996733
 H        -0.057490         0.129677         2.853766
 H        -0.943492        -1.275158         2.107595
