19
Iteration:  4682charge 0 multiplicity 1
 O         0.759563         0.258311         0.268752
 C        -0.549847         0.448650         0.766593
 C        -1.855939         0.079992        -0.048370
 C        -2.637259         1.045849         0.965415
 C        -1.235060         1.838948         0.884402
 C        -1.113358         2.561795         2.200579
 O        -1.763253         1.618769         3.205489
 C        -2.141300         0.494963         2.493572
 C        -0.878715        -0.324495         2.066378
 H         0.757856         0.239872        -0.735395
 H        -1.791789         0.575608        -1.086595
 H        -2.278168        -1.043497        -0.192594
 H        -3.604853         1.545079         0.837446
 H        -1.261946         2.454661        -0.008490
 H        -0.100352         2.769772         2.610731
 H        -1.716026         3.598969         2.334252
 H        -2.977591         0.116348         3.153320
 H        -0.060419        -0.131872         2.758223
 H        -0.855966        -1.403842         1.823069
