19
Iteration:  2194charge 0 multiplicity 1
 O         0.613152         0.168899         0.136473
 C        -0.565879         0.460629         0.740874
 C        -1.852853        -0.061397         0.044986
 C        -2.584305         0.953318         0.945001
 C        -1.286710         1.878235         0.902780
 C        -1.144157         2.607238         2.220569
 O        -1.748191         1.703318         3.182470
 C        -2.160039         0.485723         2.411237
 C        -0.764773        -0.193731         2.110585
 H         1.327861         0.426153         0.884031
 H        -1.833793         0.404028        -1.041489
 H        -2.050702        -1.221897        -0.091147
 H        -3.456612         1.502685         0.827586
 H        -1.165933         2.487452         0.061829
 H        -0.071289         2.844135         2.551666
 H        -1.655361         3.508961         2.262787
 H        -2.904826         0.156386         3.120873
 H        -0.000529         0.175016         2.870813
 H        -0.621819        -1.297716         1.946493
