19
Iteration:   575
 O         0.647561         0.111464         0.005703
 C        -0.547397         0.338968         0.747980
 C        -1.871642         0.100552        -0.029916
 C        -2.546308         1.060531         0.957352
 C        -1.148604         1.863200         0.998012
 C        -1.073016         2.524696         2.338382
 O        -2.023491         1.730423         3.188393
 C        -2.157045         0.491431         2.399922
 C        -0.730619        -0.177772         2.124632
 H         1.432215         0.345613         0.688979
 H        -1.764568         0.449045        -1.023329
 H        -2.235297        -0.988867        -0.086032
 H        -3.618441         1.436212         0.822830
 H        -0.898428         2.579491         0.176673
 H         0.038788         2.400745         2.763283
 H        -1.295836         3.582007         2.178790
 H        -2.928323        -0.146244         2.876961
 H        -0.043593         0.239992         2.860564
 H        -0.680935        -1.284448         2.205965
