19
Iteration:  3520
 O         0.599686         0.416356         0.130225
 C        -0.585184         0.383130         0.846069
 C        -1.835394        -0.166526         0.124670
 C        -2.567498         0.931840         0.982695
 C        -1.195431         1.855723         0.784106
 C        -0.949840         2.476862         2.218824
 O        -1.949563         1.757103         3.137398
 C        -2.169009         0.557605         2.386400
 C        -0.749741        -0.127088         2.141657
 H         1.132930        -0.425548         0.058532
 H        -1.865313         0.143218        -0.966591
 H        -2.152184        -1.243465         0.368756
 H        -3.623327         1.115111         0.755885
 H        -1.017076         2.355075        -0.140314
 H         0.074578         2.508132         2.583762
 H        -1.329996         3.475672         2.405112
 H        -3.001678        -0.025185         2.868669
 H        -0.049576         0.184912         2.946871
 H        -0.844864        -1.281149         2.035834
