19
Iteration:  1719charge 0 multiplicity 1
 O         0.745103         0.194517         0.145955
 C        -0.555338         0.482249         0.753037
 C        -1.853471        -0.002030        -0.015589
 C        -2.570469         0.919570         1.011746
 C        -1.282287         1.824962         0.915732
 C        -1.050550         2.443383         2.227944
 O        -1.827788         1.688955         3.163455
 C        -2.207535         0.573034         2.446903
 C        -0.834894        -0.141856         2.101657
 H         1.270947         1.104916        -0.022371
 H        -2.075895         0.402013        -0.886136
 H        -2.166833        -1.026862        -0.173666
 H        -3.663164         1.309461         1.013557
 H        -1.252014         2.537605         0.082702
 H        -0.059008         2.461162         2.458726
 H        -1.263681         3.578255         2.260105
 H        -2.992602        -0.023329         3.004205
 H        -0.076051         0.103719         2.860786
 H        -1.035449        -1.274527         2.167586
