19
Iteration:  4702
 O         0.659189         0.182782         0.193583
 C        -0.528918         0.357354         0.725169
 C        -1.917686         0.119588        -0.009393
 C        -2.420765         1.004360         1.004183
 C        -1.163724         1.857782         0.990765
 C        -1.237491         2.661606         2.257745
 O        -1.797107         1.664204         3.180252
 C        -2.095196         0.436103         2.316969
 C        -0.838841        -0.300109         2.105676
 H         0.799755         0.705856        -0.531256
 H        -2.123254         0.488904        -1.033568
 H        -2.285094        -1.024157         0.091575
 H        -3.357895         1.548428         0.997178
 H        -0.929919         2.550801         0.100503
 H        -0.340047         3.078909         2.759900
 H        -1.904589         3.493542         2.165312
 H        -3.021062        -0.056862         2.811007
 H        -0.034293        -0.116692         2.846376
 H        -1.050963        -1.362486         2.135409
