19
Iteration:   974
 O         0.678376         0.291172         0.217718
 C        -0.581430         0.414067         0.640632
 C        -1.889514        -0.018597        -0.089309
 C        -2.474082         0.991504         0.980361
 C        -1.196396         1.858673         0.846885
 C        -1.043972         2.537321         2.337528
 O        -1.842357         1.711662         3.200375
 C        -2.207501         0.521752         2.502023
 C        -0.842569        -0.236109         2.108211
 H         0.939570        -0.579040         0.174475
 H        -1.976960         0.537034        -1.079043
 H        -2.102934        -1.150199        -0.178684
 H        -3.439047         1.589549         0.871123
 H        -1.195588         2.504697        -0.112894
 H         0.006148         2.525837         2.680965
 H        -1.554856         3.523779         2.395782
 H        -3.026007         0.039183         3.004024
 H        -0.014388        -0.031552         2.824021
 H        -1.078225        -1.315716         1.832100
