19
Iteration:  4247
 O         0.804130         0.244343         0.199415
 C        -0.592951         0.432044         0.678799
 C        -1.950942         0.026105        -0.026905
 C        -2.433220         1.004069         1.008958
 C        -1.194052         1.881157         0.932254
 C        -1.107383         2.526481         2.313444
 O        -1.916002         1.666688         3.129351
 C        -2.174846         0.458517         2.462950
 C        -0.832184        -0.188104         2.106285
 H         0.772027         0.193019        -0.695953
 H        -2.169261         0.371573        -1.079416
 H        -2.391217        -0.956652         0.132386
 H        -3.364277         1.504797         0.792657
 H        -1.279086         2.465653         0.033558
 H        -0.136319         2.419874         2.784643
 H        -1.388949         3.681428         2.178955
 H        -2.837443        -0.193299         3.076267
 H        -0.056792         0.012787         2.871434
 H        -0.820931        -1.252264         1.954355
