19
Iteration:   485
 O         0.700947         0.235966         0.236705
 C        -0.613211         0.391008         0.750485
 C        -1.987570         0.037237         0.022816
 C        -2.496911         1.064985         0.974932
 C        -1.203448         1.818796         0.958891
 C        -1.089645         2.604431         2.241223
 O        -1.827305         1.720871         3.109643
 C        -2.236416         0.493771         2.357440
 C        -0.764691        -0.344136         2.013005
 H         1.469519         0.400162         0.973995
 H        -1.864078         0.420310        -1.022992
 H        -2.307962        -1.026836         0.065914
 H        -3.412246         1.582639         0.959718
 H        -1.079655         2.442623         0.068784
 H         0.000700         2.494351         2.714879
 H        -1.412672         3.563851         2.355432
 H        -2.907647         0.040467         3.005812
 H         0.027004        -0.098745         2.722598
 H        -0.688420        -1.415103         1.796394
