19
Iteration:  4862
 O         0.755977         0.081072         0.154646
 C        -0.576764         0.380025         0.665054
 C        -1.878323        -0.039377         0.015563
 C        -2.523179         1.050966         1.056681
 C        -1.246777         1.871830         0.906183
 C        -1.152222         2.601507         2.246459
 O        -1.901226         1.710289         3.222275
 C        -2.132341         0.514007         2.437766
 C        -0.792706        -0.148616         2.070151
 H         1.140292         0.947604         0.035789
 H        -1.915460         0.380635        -0.985514
 H        -2.133434        -1.092288        -0.120767
 H        -3.551307         1.374385         0.774619
 H        -1.102064         2.488793        -0.011716
 H        -0.143162         2.713985         2.687095
 H        -1.583821         3.682979         2.075800
 H        -2.791701        -0.156206         3.024333
 H         0.022237        -0.058908         2.859627
 H        -0.884649        -1.207840         1.873831
