19
Iteration:   391
 O         0.759418         0.174046         0.096238
 C        -0.578931         0.408163         0.663064
 C        -1.886329         0.038128        -0.079986
 C        -2.494394         1.081369         0.964490
 C        -1.157806         1.871202         0.962666
 C        -1.055100         2.520793         2.345831
 O        -1.883306         1.705148         3.219196
 C        -2.224927         0.485657         2.388530
 C        -0.889416        -0.235063         2.116781
 H         1.186142         0.080302         0.871679
 H        -2.051486         0.134649        -1.126894
 H        -2.157617        -1.024315         0.234452
 H        -3.455893         1.566212         0.777542
 H        -1.179796         2.519275         0.099212
 H         0.065378         2.677747         2.616584
 H        -1.634794         3.591725         2.205170
 H        -3.152846        -0.013201         2.692662
 H        -0.222625         0.179125         2.888758
 H        -0.862191        -1.316491         2.364657
