19
Iteration:  4184charge 0 multiplicity 1
 O         0.775847         0.256163         0.229548
 C        -0.528379         0.411103         0.725078
 C        -1.978543         0.017864         0.011664
 C        -2.571561         1.031973         1.006311
 C        -1.226600         1.809220         0.959599
 C        -1.085474         2.470335         2.241920
 O        -1.873300         1.694539         3.154852
 C        -2.178884         0.542707         2.401419
 C        -0.753645        -0.241906         2.051336
 H         1.002465         1.018170        -0.210570
 H        -2.063901         0.474729        -1.032077
 H        -2.266049        -1.032663         0.094616
 H        -3.596114         1.259426         0.608286
 H        -1.106649         2.385202         0.107812
 H        -0.018615         2.487252         2.569023
 H        -1.351808         3.460721         2.188070
 H        -2.993648         0.042877         2.996793
 H         0.004666        -0.007644         2.752630
 H        -1.064536        -1.291520         2.026104
