19
Iteration:  1145
 O         0.723796         0.185098         0.131649
 C        -0.566310         0.382977         0.680175
 C        -1.978751         0.060071        -0.108390
 C        -2.565121         0.978416         0.980796
 C        -1.198817         1.889243         0.901988
 C        -1.101006         2.583475         2.329558
 O        -1.863843         1.716751         3.255346
 C        -2.097602         0.456049         2.329062
 C        -0.827831        -0.244031         2.140688
 H         1.360318         0.337705         0.885811
 H        -1.752150         0.516869        -1.201938
 H        -2.261714        -0.984051        -0.260822
 H        -3.587064         1.400030         1.014945
 H        -1.102947         2.659098         0.075282
 H        -0.042773         2.673751         2.785452
 H        -1.398830         3.530700         2.328859
 H        -2.865250        -0.001043         3.010641
 H        -0.070090        -0.030849         2.922467
 H        -0.910398        -1.303581         2.208159
