19
Iteration:  1387
 O         0.718146         0.235963         0.042473
 C        -0.531819         0.401184         0.718693
 C        -1.908226         0.028122        -0.023371
 C        -2.459466         1.049473         0.989691
 C        -1.191434         1.893565         0.939814
 C        -1.133188         2.531505         2.285336
 O        -1.885534         1.722789         3.194130
 C        -2.189380         0.458172         2.435306
 C        -0.825114        -0.312966         2.149401
 H         1.451414         0.369865         0.708132
 H        -1.991030         0.507036        -1.057431
 H        -2.360228        -0.932380         0.100270
 H        -3.453415         1.458177         0.797628
 H        -1.097753         2.551067         0.031703
 H        -0.094614         2.795808         2.552254
 H        -1.772635         3.418943         2.171249
 H        -2.879826        -0.135097         2.976784
 H        -0.131686        -0.095273         2.985483
 H        -1.020732        -1.361829         2.018332
