19
Iteration:   124charge 0 multiplicity 1
 O         0.704704         0.046743         0.178921
 C        -0.528121         0.517719         0.745026
 C        -1.844369         0.034995        -0.044410
 C        -2.516350         1.002361         0.903876
 C        -1.218704         1.992113         0.875176
 C        -1.040787         2.508628         2.385803
 O        -1.995254         1.677153         3.178018
 C        -2.092214         0.506091         2.432238
 C        -0.816665        -0.139185         2.115494
 H         0.451558        -0.412924        -0.548329
 H        -1.815021         0.600910        -1.053510
 H        -2.117856        -0.983501        -0.138458
 H        -3.547696         1.391465         0.876003
 H        -1.183240         2.719786         0.034505
 H        -0.053854         2.336197         2.875318
 H        -1.363882         3.495891         2.568272
 H        -2.802127        -0.168756         3.013984
 H        -0.065958         0.033778         2.873816
 H        -1.059203        -1.161221         1.845801
