19
Iteration:  4641charge 0 multiplicity 1
 O         0.740271         0.420835         0.298436
 C        -0.637710         0.448141         0.699262
 C        -1.932690         0.050954        -0.005299
 C        -2.607234         0.972387         0.985035
 C        -1.263834         1.829696         0.891799
 C        -0.854051         2.395631         2.281430
 O        -1.926248         1.684118         3.107483
 C        -2.187486         0.484401         2.446961
 C        -0.802725        -0.251797         2.063195
 H         0.793026         0.236588        -0.591115
 H        -1.969203         0.286676        -1.073871
 H        -2.081647        -0.962315         0.140313
 H        -3.522053         1.584287         0.842293
 H        -1.124049         2.404453         0.012634
 H         0.156740         2.144970         2.609522
 H        -0.952504         3.511438         2.420567
 H        -2.842212        -0.185206         3.003666
 H        -0.046446         0.044733         2.771771
 H        -0.905799        -1.384345         2.039734
