19
Iteration:  3459charge 0 multiplicity 1
 O         0.632377         0.217516         0.161159
 C        -0.590627         0.466341         0.805793
 C        -1.787751        -0.032200        -0.056285
 C        -2.490629         0.923819         0.999821
 C        -1.285907         1.815238         0.833513
 C        -1.223836         2.602052         2.206998
 O        -1.797453         1.777597         3.144426
 C        -2.096382         0.460747         2.533560
 C        -0.805903        -0.172091         2.117329
 H         1.116070        -0.420314         0.589343
 H        -1.773497         0.218031        -1.076471
 H        -1.960218        -1.080166         0.086179
 H        -3.420048         1.441564         0.879444
 H        -1.219789         2.447174        -0.184306
 H        -0.200047         2.897495         2.486042
 H        -1.866553         3.524248         2.084953
 H        -2.728956        -0.027389         3.238564
 H        -0.013617         0.035572         2.791414
 H        -0.815217        -1.214016         1.939400
