19
Iteration:  1943
 O         0.657208         0.204833         0.046433
 C        -0.476100         0.474297         0.727889
 C        -1.806951        -0.047849         0.025604
 C        -2.502016         0.980915         1.005644
 C        -1.304432         1.894583         0.842088
 C        -1.139704         2.591031         2.237592
 O        -1.823907         1.675632         3.182684
 C        -2.181026         0.552572         2.478122
 C        -0.827174        -0.181206         2.178988
 H         0.939021        -0.688156         0.520521
 H        -1.713142         0.378539        -1.059768
 H        -2.018256        -1.096831        -0.004071
 H        -3.558301         1.333947         1.022380
 H        -1.440824         2.520772        -0.070486
 H        -0.088678         2.625312         2.505670
 H        -1.826779         3.578657         2.352989
 H        -2.811571        -0.139280         3.073471
 H        -0.072056         0.040647         3.032368
 H        -0.785450        -1.299984         2.017545
