19
Iteration:  2930charge 0 multiplicity 1
 O         0.690162         0.271570         0.096330
 C        -0.562683         0.473943         0.737309
 C        -1.842841        -0.056614         0.011114
 C        -2.526308         0.953082         0.989409
 C        -1.326337         1.870055         0.876484
 C        -1.053241         2.541690         2.191230
 O        -1.851101         1.742527         3.217981
 C        -2.178713         0.467952         2.412807
 C        -0.773067        -0.176790         2.147167
 H         1.214020        -0.368857         0.755769
 H        -2.061891         0.012368        -1.113814
 H        -2.085085        -1.155993         0.221945
 H        -3.546863         1.326975         0.994996
 H        -1.247089         2.675808         0.007957
 H         0.096663         2.560319         2.334010
 H        -1.467859         3.510750         2.346297
 H        -2.935924        -0.020295         2.941237
 H        -0.392644         0.194831         3.078304
 H        -0.733499        -1.327212         2.025543
