19
Iteration:  3533
 O         0.629723         0.422052         0.076788
 C        -0.580052         0.456244         0.786372
 C        -1.832573        -0.120114         0.101114
 C        -2.547779         0.925645         0.907544
 C        -1.276398         1.815485         0.905961
 C        -1.017375         2.519555         2.236533
 O        -1.868993         1.776216         3.033853
 C        -2.168925         0.486537         2.431631
 C        -0.804816        -0.199819         2.284028
 H         0.879102        -0.502475         0.182562
 H        -1.680205         0.051413        -0.937574
 H        -2.093919        -1.195201         0.233864
 H        -3.510089         1.337036         0.779091
 H        -1.067296         2.429469        -0.080056
 H        -0.017522         2.227888         2.478756
 H        -1.100005         3.701123         2.287765
 H        -2.842949        -0.035744         3.106524
 H        -0.103861         0.088600         3.065721
 H        -0.800340        -1.355302         2.280717
