19
Iteration:  3890charge 0 multiplicity 1
 O         0.699654         0.221961         0.120666
 C        -0.587831         0.372056         0.761478
 C        -1.886893         0.053017        -0.061847
 C        -2.553535         1.005510         0.935710
 C        -1.249911         1.861702         0.966062
 C        -1.101778         2.582819         2.289016
 O        -1.830901         1.719031         3.111073
 C        -2.105146         0.502177         2.433606
 C        -0.826983        -0.319119         2.161391
 H         1.321375         0.489847         0.723458
 H        -1.863741         0.528559        -1.038076
 H        -2.334243        -0.936506        -0.125696
 H        -3.594826         1.324680         0.867265
 H        -1.115683         2.423191         0.042968
 H        -0.073274         2.638357         2.578126
 H        -1.605787         3.619190         2.342056
 H        -2.885926         0.075126         3.080929
 H        -0.048393        -0.001896         2.870608
 H        -0.848454        -1.410827         2.132627
