19
Iteration:  3616
 O         0.642440         0.281264         0.064461
 C        -0.570149         0.410836         0.761960
 C        -1.812885        -0.056468         0.001557
 C        -2.563789         0.919683         0.935494
 C        -1.251273         1.760671         0.946402
 C        -1.132861         2.564908         2.223413
 O        -1.799286         1.791784         3.173107
 C        -2.192161         0.559552         2.462969
 C        -0.772242        -0.190769         2.138905
 H         1.258960        -0.229568         0.770363
 H        -1.750645         0.184844        -1.110226
 H        -1.911997        -1.146977         0.105128
 H        -3.667013         1.189707         0.841563
 H        -1.110832         2.386734         0.170697
 H        -0.076866         2.953569         2.541612
 H        -1.718134         3.458453         2.036290
 H        -2.893959         0.058787         3.208234
 H         0.012160         0.073991         2.864979
 H        -0.983462        -1.206532         2.128453
