19
Iteration:  3024
 O         0.703178         0.184886         0.150586
 C        -0.532466         0.422112         0.696215
 C        -1.838562        -0.056064         0.009904
 C        -2.495751         0.973130         0.999275
 C        -1.310660         1.928357         0.856966
 C        -1.186057         2.628076         2.272114
 O        -1.853364         1.686565         3.141596
 C        -2.118709         0.513712         2.491048
 C        -0.756907        -0.180434         2.149325
 H         0.782681        -0.601099        -0.369105
 H        -1.887071         0.168257        -1.011828
 H        -2.188350        -1.066799         0.069780
 H        -3.507588         1.417830         0.720524
 H        -1.200273         2.509413         0.014709
 H        -0.229024         2.789900         2.692714
 H        -1.828299         3.596404         2.347964
 H        -2.917019         0.021510         3.178586
 H        -0.004382         0.247619         2.907187
 H        -0.638449        -1.263863         2.090217
