19
Iteration:  1804charge 0 multiplicity 1
 O         0.630676         0.204464         0.113185
 C        -0.576198         0.438303         0.746393
 C        -1.816722        -0.002475         0.020591
 C        -2.549152         0.995506         0.970210
 C        -1.207556         1.864904         0.871379
 C        -1.145515         2.608207         2.261837
 O        -1.891939         1.689999         3.169634
 C        -2.102982         0.508853         2.460872
 C        -0.712402        -0.174658         2.095700
 H         0.857383        -0.648212         0.404988
 H        -1.763972         0.488743        -1.036401
 H        -2.166268        -1.089624         0.043052
 H        -3.617006         1.388103         0.836908
 H        -1.201538         2.510246        -0.032780
 H        -0.122466         2.667088         2.795295
 H        -1.764247         3.507640         2.304523
 H        -2.742307        -0.184009         3.174922
 H         0.060219        -0.001677         2.788328
 H        -0.926643        -1.300615         2.080908
