19
Iteration:   725charge 0 multiplicity 1
 O         0.734440         0.259282         0.028913
 C        -0.525106         0.390597         0.725418
 C        -1.942355         0.031376        -0.075435
 C        -2.455198         1.017598         0.958552
 C        -1.106835         1.859693         0.899360
 C        -1.043455         2.520971         2.345841
 O        -1.962451         1.731593         3.220551
 C        -2.210121         0.464211         2.425406
 C        -0.884509        -0.189885         2.221569
 H         0.992463        -0.742422        -0.001596
 H        -2.092621         0.403022        -1.058696
 H        -2.274116        -1.032010         0.111690
 H        -3.470137         1.441822         0.785125
 H        -1.018585         2.621942         0.070677
 H        -0.061318         2.503412         2.782606
 H        -1.383749         3.701117         2.165650
 H        -2.893740        -0.177748         2.934237
 H        -0.231049         0.100618         3.035738
 H        -0.801985        -1.295586         2.185210
