19
Iteration:  3516charge 0 multiplicity 1
 O         0.625812         0.412102         0.145002
 C        -0.589581         0.367942         0.793507
 C        -1.848070        -0.172936         0.113930
 C        -2.536362         0.928235         1.002132
 C        -1.201722         1.836276         0.787228
 C        -0.968054         2.468269         2.202494
 O        -1.967755         1.743638         3.170727
 C        -2.162220         0.587508         2.390179
 C        -0.753951        -0.125656         2.129832
 H         1.179896        -0.450393         0.080726
 H        -2.041125         0.172168        -0.957129
 H        -2.122770        -1.176570         0.420467
 H        -3.614802         1.259984         0.776649
 H        -1.021060         2.491605        -0.069556
 H         0.073164         2.515332         2.662695
 H        -1.346941         3.471482         2.182057
 H        -2.991454         0.030266         2.847118
 H        -0.039501         0.202146         2.897419
 H        -0.784148        -1.166924         2.088425
