19
Iteration:  1648
 O         0.723648         0.218274         0.134452
 C        -0.610692         0.427751         0.656536
 C        -1.790644         0.031475        -0.082675
 C        -2.527752         0.904406         1.008924
 C        -1.226363         1.867843         0.935146
 C        -1.116768         2.543014         2.265684
 O        -1.879728         1.683905         3.256528
 C        -2.198804         0.577333         2.449654
 C        -0.795458        -0.141828         2.140592
 H         0.572310        -0.616933        -0.507584
 H        -1.843399         0.444066        -1.173332
 H        -1.982891        -1.030818        -0.151231
 H        -3.475014         1.293824         0.784285
 H        -1.201622         2.643278         0.167002
 H        -0.048546         2.469235         2.667230
 H        -1.369560         3.549319         2.436208
 H        -2.820656        -0.075717         3.009427
 H        -0.098327         0.071799         2.981070
 H        -0.930406        -1.191459         2.062804
