19
Iteration:  3353
 O         0.616427         0.236007         0.090125
 C        -0.578267         0.373079         0.747312
 C        -1.891538        -0.148540         0.092035
 C        -2.483899         0.971467         1.012051
 C        -1.178951         1.848345         0.893806
 C        -1.154100         2.605168         2.310592
 O        -1.926693         1.760719         3.104228
 C        -2.091184         0.536141         2.380735
 C        -0.742130        -0.169232         2.073699
 H         1.322939         0.381499         0.633114
 H        -1.924243         0.128337        -1.025310
 H        -2.210623        -1.211375         0.350833
 H        -3.502162         1.322205         0.788812
 H        -1.098366         2.422148         0.062841
 H        -0.067981         2.655460         2.616872
 H        -1.485713         3.649184         2.286791
 H        -2.754689        -0.041396         2.985167
 H        -0.097256         0.350257         2.890873
 H        -0.677204        -1.293972         2.182017
