19
Iteration:  4420
 O         0.752460         0.113390         0.116446
 C        -0.523476         0.332567         0.715994
 C        -1.934525         0.064207        -0.078393
 C        -2.467066         1.021469         0.970900
 C        -1.177213         1.908854         0.958144
 C        -1.245084         2.642835         2.311423
 O        -1.850991         1.646091         3.238736
 C        -2.097174         0.455616         2.423723
 C        -0.828272        -0.197686         2.133505
 H         0.768400         0.891828        -0.572730
 H        -2.048892         0.502254        -1.085347
 H        -2.393941        -0.960635        -0.033093
 H        -3.429891         1.498325         0.824262
 H        -0.943219         2.502766        -0.024364
 H        -0.357419         3.027651         2.946121
 H        -1.847043         3.489029         2.087709
 H        -2.859951        -0.166327         2.953164
 H        -0.081891         0.147163         2.937734
 H        -0.842316        -1.323290         2.078580
