19
Iteration:  2770
 O         0.716029         0.351184         0.069645
 C        -0.539996         0.410573         0.777366
 C        -1.919294        -0.108093         0.061443
 C        -2.495133         0.983564         0.994161
 C        -1.158011         1.851446         0.846868
 C        -1.151657         2.634853         2.178130
 O        -1.804217         1.644646         3.156133
 C        -2.198427         0.470368         2.479285
 C        -0.836055        -0.166899         2.232160
 H         1.045008        -0.580574         0.001014
 H        -2.032860         0.183793        -1.042833
 H        -2.139970        -1.158066         0.043724
 H        -3.403187         1.423371         0.714154
 H        -1.286918         2.462697        -0.085554
 H        -0.172498         2.905472         2.690504
 H        -1.818991         3.521616         2.185907
 H        -3.045166        -0.055215         2.986449
 H        -0.092491         0.221762         2.946126
 H        -0.946291        -1.255899         2.128500
