19
Iteration:  3792charge 0 multiplicity 1
 O         0.748533         0.222989         0.150704
 C        -0.537135         0.325946         0.702755
 C        -1.929352        -0.007744        -0.022277
 C        -2.521656         0.937038         1.014798
 C        -1.289443         1.822727         0.910280
 C        -0.972350         2.551820         2.273298
 O        -2.018970         1.808301         3.195601
 C        -2.144177         0.553491         2.433636
 C        -0.775939        -0.257265         2.070473
 H         1.071125         0.991752        -0.195981
 H        -1.754983         0.372566        -0.993572
 H        -2.259521        -1.016366         0.150910
 H        -3.487774         1.355868         0.818728
 H        -1.223353         2.428487         0.052225
 H         0.010283         2.438655         2.713019
 H        -1.188257         3.624221         2.305084
 H        -2.832577        -0.100265         3.009778
 H        -0.024137         0.093807         2.764894
 H        -0.842718        -1.297667         2.251465
