19
Iteration:  4684charge 0 multiplicity 1
 O         0.763795         0.249324         0.255755
 C        -0.561659         0.443248         0.775242
 C        -1.869189         0.069854        -0.046548
 C        -2.622216         1.060764         0.979672
 C        -1.219869         1.843546         0.895855
 C        -1.133548         2.560807         2.207796
 O        -1.759990         1.631724         3.192635
 C        -2.155248         0.486379         2.483013
 C        -0.858838        -0.330463         2.065207
 H         0.726305         0.290280        -0.648932
 H        -1.774377         0.590437        -1.055054
 H        -2.268718        -0.964000        -0.198293
 H        -3.613675         1.533769         0.837654
 H        -1.224617         2.423136         0.025232
 H        -0.125657         2.810083         2.585814
 H        -1.758456         3.588526         2.294045
 H        -2.938234         0.078085         3.111563
 H        -0.083947        -0.132338         2.792513
 H        -0.838500        -1.422050         1.782359
