19
Iteration:  3667
 O         0.655376         0.184059         0.172783
 C        -0.606417         0.455575         0.706663
 C        -1.822370        -0.145117        -0.004173
 C        -2.546438         0.970380         1.015584
 C        -1.252212         1.848679         0.878299
 C        -1.007384         2.496781         2.253807
 O        -1.902288         1.771141         3.165675
 C        -2.194687         0.504094         2.443656
 C        -0.767327        -0.123406         2.112901
 H         1.065542         1.009140        -0.024861
 H        -2.001067         0.136574        -1.052894
 H        -1.953898        -1.198380         0.078343
 H        -3.566512         1.397597         0.835946
 H        -1.272273         2.604111         0.021090
 H         0.004808         2.447603         2.551453
 H        -1.370706         3.578472         2.312351
 H        -2.842750        -0.085940         3.085349
 H        -0.090553         0.461742         2.768575
 H        -0.558771        -1.216910         2.142481
