19
Iteration:  1708
 O         0.695968         0.207229         0.162465
 C        -0.545163         0.443425         0.662117
 C        -1.848074         0.009016         0.010482
 C        -2.555852         0.975538         1.012586
 C        -1.241494         1.822315         0.878160
 C        -1.090517         2.473811         2.260481
 O        -1.819614         1.744372         3.241413
 C        -2.190192         0.462800         2.397963
 C        -0.852291        -0.161468         2.132453
 H         1.082541         0.926668        -0.263320
 H        -1.803313         0.362934        -0.912650
 H        -2.104632        -1.044786         0.117192
 H        -3.491924         1.494007         0.642242
 H        -1.189357         2.493471         0.000985
 H        -0.108495         2.448190         2.539985
 H        -1.521637         3.532445         2.191063
 H        -2.922647        -0.081425         3.053830
 H        -0.166427         0.138477         2.931416
 H        -0.806592        -1.298706         2.004166
