19
Iteration:   722
 O         0.752581         0.243614         0.028726
 C        -0.530513         0.405368         0.720712
 C        -1.977901        -0.002709        -0.087465
 C        -2.457683         1.023538         0.949922
 C        -1.110988         1.862542         0.889949
 C        -1.036006         2.514044         2.338208
 O        -1.963009         1.728139         3.226938
 C        -2.207943         0.468326         2.437973
 C        -0.872517        -0.170984         2.236419
 H         1.070760        -0.592252         0.000572
 H        -2.063209         0.486240        -1.099118
 H        -2.314187        -0.989428         0.044020
 H        -3.397492         1.416562         0.809025
 H        -1.002757         2.637628         0.178355
 H        -0.038767         2.534952         2.849939
 H        -1.446055         3.564321         2.213945
 H        -2.974992        -0.141235         2.875147
 H        -0.158951         0.108804         3.050314
 H        -0.878794        -1.264173         2.168690
