19
Iteration:  2674
 O         0.645355         0.435299         0.116828
 C        -0.606396         0.390289         0.726420
 C        -1.932550        -0.122814         0.125025
 C        -2.483145         0.956207         0.993866
 C        -1.193128         1.805858         0.922454
 C        -1.086032         2.510725         2.226349
 O        -1.894176         1.773632         3.092617
 C        -2.118044         0.472054         2.364710
 C        -0.756739        -0.224034         2.159437
 H         1.218926        -0.226878         0.293727
 H        -2.165535         0.136028        -0.923414
 H        -2.293159        -1.111627         0.389275
 H        -3.460718         1.464020         0.833012
 H        -0.993519         2.520341         0.136897
 H        -0.024437         2.602837         2.594208
 H        -1.472545         3.548036         2.035399
 H        -2.797877        -0.206220         3.045232
 H         0.098226         0.216672         2.786009
 H        -0.913104        -1.230706         2.246377
