19
Iteration:  4011
 O         0.710501         0.201181         0.270010
 C        -0.579559         0.431660         0.804518
 C        -1.899462         0.079404        -0.015921
 C        -2.555749         1.072972         0.989378
 C        -1.193633         1.838964         0.947122
 C        -1.167085         2.616134         2.208676
 O        -1.785468         1.631261         3.143155
 C        -2.136630         0.492544         2.389583
 C        -0.806620        -0.299982         2.086893
 H         0.877327         0.439957        -0.739036
 H        -1.829884         0.314930        -1.055408
 H        -2.191923        -0.942184        -0.021516
 H        -3.611495         1.476750         0.925985
 H        -1.045511         2.472136         0.018323
 H        -0.222206         2.806580         2.638445
 H        -1.835021         3.546932         2.050004
 H        -2.841202        -0.186041         2.885814
 H        -0.048546        -0.096864         2.832864
 H        -0.876152        -1.427244         1.954658
