19
Iteration:  4780charge 0 multiplicity 1
 O         0.709751         0.364992         0.100080
 C        -0.588133         0.365852         0.731110
 C        -1.955160         0.010263         0.000818
 C        -2.518319         0.987962         1.016953
 C        -1.241061         1.780379         0.895282
 C        -0.961893         2.467780         2.254866
 O        -1.943795         1.732102         3.186796
 C        -2.156849         0.563799         2.396016
 C        -0.814832        -0.246530         2.091815
 H         1.398205         0.366823         0.848461
 H        -1.865740         0.368012        -1.086182
 H        -2.089350        -1.150218         0.194867
 H        -3.501021         1.413428         0.820709
 H        -1.071692         2.378372        -0.038942
 H        -0.046456         2.222688         2.795062
 H        -1.198447         3.500252         2.263285
 H        -2.861647        -0.070891         3.017655
 H        -0.111335         0.119302         2.818271
 H        -0.973334        -1.342840         2.140275
