19
Iteration:   325
 O         0.765179         0.237582         0.245722
 C        -0.580013         0.399732         0.643036
 C        -1.970203         0.055547        -0.051036
 C        -2.538772         1.013232         0.922540
 C        -1.209941         1.809559         0.903962
 C        -1.075449         2.468110         2.298447
 O        -1.841085         1.710136         3.238649
 C        -2.164972         0.584557         2.368048
 C        -0.866745        -0.215306         2.059773
 H         1.252160        -0.094080         1.131240
 H        -1.964921         0.440269        -1.040271
 H        -2.304432        -1.035533         0.106861
 H        -3.500141         1.458178         0.776147
 H        -0.959457         2.535210         0.152473
 H         0.026841         2.557190         2.655227
 H        -1.573429         3.460473         2.165048
 H        -2.821453         0.022526         2.972160
 H         0.038357        -0.057617         2.653966
 H        -1.000591        -1.326089         1.950465
