19
Iteration:  2297charge 0 multiplicity 1
 O         0.644748         0.267050         0.153542
 C        -0.618561         0.445185         0.722608
 C        -1.935295        -0.135541        -0.004777
 C        -2.507123         0.983699         1.040438
 C        -1.242225         1.841725         0.873964
 C        -1.061179         2.535033         2.246259
 O        -1.918304         1.768921         3.122236
 C        -2.049664         0.491596         2.432534
 C        -0.726396        -0.192905         2.112784
 H         1.209559         0.430262         0.861006
 H        -2.085869         0.321982        -0.928819
 H        -2.209014        -1.163598         0.027123
 H        -3.606173         1.409272         0.920829
 H        -1.134097         2.534556        -0.101077
 H        -0.100463         2.562360         2.735657
 H        -1.462362         3.593006         2.097579
 H        -2.729606        -0.096379         3.096663
 H         0.094365         0.055031         2.727931
 H        -0.811570        -1.339481         2.072421
