19
Iteration:  1135
 O         0.664142         0.242192         0.155347
 C        -0.590211         0.356820         0.687968
 C        -1.865334         0.066132        -0.092529
 C        -2.476966         1.013128         0.986966
 C        -1.213910         1.911296         0.920256
 C        -1.110297         2.605453         2.311467
 O        -1.804293         1.688656         3.168577
 C        -2.179926         0.460954         2.408277
 C        -0.818220        -0.322868         2.132205
 H         1.249044         0.138152         0.860270
 H        -2.168653         0.604048        -1.063907
 H        -2.319794        -0.886060        -0.051040
 H        -3.563682         1.291402         0.857952
 H        -1.087193         2.569500        -0.021728
 H        -0.052297         2.666464         2.718432
 H        -1.566789         3.529828         2.296600
 H        -2.997087        -0.108465         2.928203
 H        -0.132156         0.080115         2.873266
 H        -0.950751        -1.364527         2.171602
