19
Iteration:  2628
 O         0.657947         0.220056         0.141903
 C        -0.590207         0.417664         0.735658
 C        -1.822261        -0.009603        -0.042854
 C        -2.550282         0.855807         0.974786
 C        -1.339249         1.810571         0.930579
 C        -1.133874         2.657218         2.239295
 O        -1.791430         1.711436         3.149724
 C        -2.109641         0.516525         2.491539
 C        -0.769884        -0.136982         2.083117
 H         1.245450        -0.181883         0.734564
 H        -1.815245         0.483304        -1.099108
 H        -1.996499        -1.070479        -0.086228
 H        -3.558695         1.167268         1.034464
 H        -1.451480         2.458090        -0.016279
 H        -0.054239         2.839423         2.607435
 H        -1.643192         3.570627         2.202741
 H        -2.816970        -0.060973         3.173893
 H        -0.077308         0.235945         2.831844
 H        -0.805677        -1.172816         2.013720
