19
Iteration:  2835
 O         0.714978         0.312612         0.107946
 C        -0.577474         0.373150         0.735221
 C        -1.921746        -0.072718         0.044324
 C        -2.580765         0.983348         0.994849
 C        -1.256070         1.814772         0.871674
 C        -1.032778         2.500750         2.231972
 O        -1.902321         1.714055         3.162244
 C        -2.196108         0.561792         2.444936
 C        -0.743407        -0.175050         2.136826
 H         1.355472         0.605299         0.674418
 H        -1.903894         0.283770        -1.045102
 H        -2.105465        -1.145983         0.053468
 H        -3.541970         1.346271         0.786247
 H        -1.090715         2.358867        -0.073455
 H         0.051647         2.431483         2.420660
 H        -1.493215         3.608679         2.215290
 H        -2.886009        -0.081389         3.042067
 H         0.006069         0.193182         2.903506
 H        -0.594856        -1.351059         2.192040
