19
Iteration:  3961charge 0 multiplicity 1
 O         0.682424         0.216449         0.201631
 C        -0.563243         0.470880         0.775619
 C        -1.916273         0.083432         0.013706
 C        -2.501920         0.978177         0.993481
 C        -1.223641         1.860874         0.916820
 C        -1.051919         2.479213         2.292259
 O        -1.951042         1.745287         3.104898
 C        -2.159839         0.466989         2.442714
 C        -0.708428        -0.258298         2.086434
 H         0.679477         0.228813        -0.708626
 H        -1.919399         0.588279        -1.014917
 H        -2.272874        -1.039417        -0.047670
 H        -3.460450         1.447781         0.792150
 H        -1.032280         2.527132         0.026085
 H        -0.006647         2.381808         2.764654
 H        -1.370474         3.491017         2.222111
 H        -2.931798        -0.156919         2.906314
 H         0.006147         0.014649         2.893170
 H        -0.786205        -1.338014         2.029407
