19
Iteration:  1701
 O         0.708948         0.188072         0.163021
 C        -0.635925         0.420581         0.732004
 C        -1.882498        -0.021435        -0.002891
 C        -2.506074         1.035025         0.933461
 C        -1.216701         1.849405         0.885204
 C        -1.066895         2.560898         2.270671
 O        -1.869298         1.721572         3.230003
 C        -2.176240         0.448976         2.447343
 C        -0.802380        -0.223600         2.122074
 H         0.795512         1.036241        -0.431155
 H        -1.842359         0.347116        -1.160221
 H        -1.984155        -1.124539         0.150985
 H        -3.465099         1.428108         0.746509
 H        -1.223249         2.449226        -0.022793
 H         0.073411         2.752074         2.591673
 H        -1.566972         3.494381         2.355709
 H        -2.864125        -0.141104         2.970796
 H        -0.077250         0.125223         2.911107
 H        -0.734948        -1.258677         1.963923
