19
Iteration:  4385charge 0 multiplicity 1
 O         0.724230         0.251915         0.227427
 C        -0.600961         0.444521         0.760076
 C        -1.884804         0.022067        -0.034010
 C        -2.531119         0.950345         0.964190
 C        -1.290685         1.912990         0.917291
 C        -1.025167         2.560202         2.308445
 O        -1.881440         1.700784         3.173564
 C        -2.113009         0.450399         2.400490
 C        -0.828296        -0.215965         2.072602
 H         0.721560         0.449002        -0.819923
 H        -1.879879         0.361111        -1.085923
 H        -2.217392        -1.105656        -0.042641
 H        -3.531473         1.247081         0.805833
 H        -1.096764         2.475574        -0.088995
 H         0.060755         2.409002         2.701691
 H        -1.383021         3.589824         2.499240
 H        -2.696408        -0.172148         3.042663
 H        -0.043506        -0.150000         2.928869
 H        -1.023921        -1.331092         1.994752
