19
Iteration:  3605
 O         0.692772         0.236333         0.104279
 C        -0.504446         0.453672         0.812642
 C        -1.840625        -0.037772         0.090866
 C        -2.615423         0.925694         0.979712
 C        -1.271828         1.848381         0.870806
 C        -1.185966         2.589119         2.152951
 O        -1.770816         1.691650         3.166335
 C        -2.146891         0.543087         2.433867
 C        -0.823410        -0.152497         2.141340
 H         1.271121        -0.473640         0.461165
 H        -1.903864         0.446259        -0.944035
 H        -2.140347        -1.106425         0.081001
 H        -3.580532         1.370885         0.553068
 H        -1.135483         2.329634        -0.003461
 H        -0.059870         2.805491         2.404446
 H        -1.738139         3.490871         2.194360
 H        -2.733329        -0.172467         3.086251
 H        -0.190515         0.133421         2.996832
 H        -0.770784        -1.196735         2.066058
