19
Iteration:  1744charge 0 multiplicity 1
 O         0.624267         0.285907         0.206496
 C        -0.575694         0.416280         0.699617
 C        -1.864781        -0.020753        -0.008765
 C        -2.541207         0.968000         0.997173
 C        -1.251292         1.836634         0.876981
 C        -1.056218         2.512805         2.257209
 O        -1.871544         1.831406         3.147088
 C        -2.121542         0.415853         2.441488
 C        -0.772216        -0.308345         2.070514
 H         1.188989         0.943414         0.584529
 H        -2.002875         0.319743        -1.097773
 H        -2.398260        -0.977486         0.004201
 H        -3.505512         1.413297         1.013576
 H        -1.247972         2.497857         0.014242
 H         0.000364         2.441391         2.554805
 H        -1.063640         3.587121         2.208711
 H        -2.771372        -0.113302         3.040568
 H        -0.040996         0.034768         2.895412
 H        -0.904571        -1.363558         2.123605
