19
Iteration:  1951charge 0 multiplicity 1
 O         0.653081         0.225759         0.009765
 C        -0.568672         0.419053         0.752088
 C        -1.752455        -0.100188         0.024469
 C        -2.485779         0.981439         1.036750
 C        -1.242014         1.917023         0.856523
 C        -1.183503         2.600674         2.273602
 O        -1.818382         1.702272         3.215861
 C        -2.180273         0.507572         2.455873
 C        -0.853772        -0.156199         2.132077
 H         1.139653        -0.584284         0.342520
 H        -1.801745         0.221007        -0.998041
 H        -2.117789        -1.122439        -0.018285
 H        -3.530817         1.243345         0.775944
 H        -1.195782         2.494836        -0.120689
 H        -0.092862         2.816866         2.525954
 H        -1.566699         3.734659         2.330475
 H        -2.900922        -0.042728         3.071404
 H        -0.130352         0.133927         3.038443
 H        -0.854560        -1.264952         2.075830
