19
Iteration:  4412charge 0 multiplicity 1
 O         0.744040         0.159757         0.150085
 C        -0.563657         0.364158         0.682426
 C        -1.948253         0.065954        -0.049126
 C        -2.460835         1.049667         1.027154
 C        -1.141017         1.899068         0.922982
 C        -1.229515         2.537472         2.299125
 O        -1.862283         1.702847         3.229147
 C        -2.146369         0.416829         2.405215
 C        -0.787776        -0.235478         2.122515
 H         1.004699         0.769071        -0.725420
 H        -1.905217         0.520897        -1.056234
 H        -2.251351        -0.914504         0.011613
 H        -3.480323         1.609106         0.951042
 H        -0.989128         2.464226        -0.021858
 H        -0.322926         3.055341         2.787465
 H        -1.863198         3.433143         2.040399
 H        -2.929413        -0.204770         2.993346
 H        -0.147810         0.127850         2.880563
 H        -0.783635        -1.337139         2.167344
