19
Iteration:  4615charge 0 multiplicity 1
 O         0.734352         0.292086         0.113694
 C        -0.536285         0.404220         0.731615
 C        -1.943863        -0.015357        -0.013816
 C        -2.524187         1.001847         0.970800
 C        -1.166491         1.832696         0.910024
 C        -1.035160         2.474212         2.381176
 O        -1.943787         1.686195         3.181550
 C        -2.202386         0.541730         2.409242
 C        -0.785610        -0.275880         2.108609
 H         0.617141         0.866528        -0.631088
 H        -1.822401         0.407560        -1.044430
 H        -2.325558        -1.156801        -0.105758
 H        -3.347291         1.693097         0.958741
 H        -1.008159         2.622033         0.110895
 H        -0.036127         2.532179         2.897015
 H        -1.369092         3.652984         2.283183
 H        -3.034606        -0.071113         2.856994
 H        -0.117314         0.106360         2.915251
 H        -0.771654        -1.366630         2.079627
