19
Iteration:  1722charge 0 multiplicity 1
 O         0.764433         0.194706         0.142703
 C        -0.583350         0.474977         0.778818
 C        -1.871841        -0.012437        -0.028568
 C        -2.576195         0.922217         1.001199
 C        -1.296656         1.837431         0.919607
 C        -1.021494         2.467442         2.224905
 O        -1.845871         1.678184         3.138202
 C        -2.201999         0.583710         2.475616
 C        -0.828173        -0.160846         2.106082
 H         1.224413         1.111927         0.078845
 H        -2.128548         0.537765        -0.994708
 H        -2.099928        -1.093037        -0.165559
 H        -3.591895         1.208043         1.051985
 H        -1.285692         2.510400         0.074413
 H         0.075420         2.470750         2.462535
 H        -1.268786         3.513422         2.342156
 H        -2.920313         0.019552         2.960070
 H        -0.016353         0.102772         2.859884
 H        -1.022001        -1.198296         2.116638
