19
Iteration:  4131charge 0 multiplicity 1
 O         0.740377         0.136599         0.163024
 C        -0.534300         0.477896         0.826139
 C        -1.822215         0.079312        -0.044752
 C        -2.565382         1.048841         0.962103
 C        -1.268040         1.910570         0.872025
 C        -1.193553         2.559252         2.268280
 O        -1.825443         1.676044         3.222407
 C        -2.095442         0.401368         2.441283
 C        -0.813048        -0.197432         2.128708
 H         0.457688        -0.059176        -0.645710
 H        -1.672573         0.498437        -1.039488
 H        -2.099732        -0.946941        -0.192984
 H        -3.633895         1.411178         0.583884
 H        -1.154865         2.394128        -0.121178
 H        -0.163824         2.718496         2.680865
 H        -1.655387         3.601194         2.083172
 H        -2.870776         0.052182         3.173378
 H        -0.155941        -0.198810         2.969150
 H        -1.072187        -1.324777         1.920470
