19
Iteration:  3604
 O         0.701075         0.231788         0.109596
 C        -0.509706         0.454056         0.809227
 C        -1.842530        -0.038444         0.097910
 C        -2.609942         0.926861         0.988486
 C        -1.274305         1.858416         0.858903
 C        -1.189047         2.593262         2.148773
 O        -1.770184         1.684170         3.166385
 C        -2.140630         0.535018         2.431179
 C        -0.825267        -0.155434         2.147906
 H         1.233162        -0.452533         0.427474
 H        -1.910308         0.440684        -0.932149
 H        -2.156919        -1.069424         0.064781
 H        -3.570539         1.397757         0.559531
 H        -1.147075         2.346179        -0.047354
 H        -0.071435         2.775326         2.408963
 H        -1.753193         3.536459         2.200485
 H        -2.756032        -0.168293         3.062292
 H        -0.196752         0.145250         3.008960
 H        -0.760654        -1.181483         2.055140
