19
Iteration:  1680charge 0 multiplicity 1
 O         0.685050         0.233643         0.173684
 C        -0.552255         0.356136         0.722598
 C        -1.935933         0.003180         0.034698
 C        -2.493491         1.006294         1.013714
 C        -1.187977         1.881165         0.962252
 C        -1.194958         2.570524         2.300875
 O        -1.894302         1.724663         3.116382
 C        -2.067243         0.511687         2.337724
 C        -0.752347        -0.268403         2.132116
 H         0.640587         0.265107        -0.719435
 H        -1.854272         0.484411        -1.119910
 H        -2.390425        -1.022155         0.155630
 H        -3.453389         1.405061         0.904962
 H        -0.897904         2.539230         0.137236
 H        -0.071528         2.633326         2.806696
 H        -1.601149         3.554882         2.286954
 H        -2.771178        -0.055745         2.885046
 H         0.033423        -0.066497         2.912967
 H        -0.968663        -1.291597         2.077078
