19
Iteration:  1849charge 0 multiplicity 1
 O         0.687810         0.373114         0.129752
 C        -0.588148         0.394570         0.737036
 C        -1.898854        -0.042965        -0.011708
 C        -2.556232         0.929098         0.957376
 C        -1.203654         1.831362         0.870649
 C        -1.069768         2.483171         2.263373
 O        -1.875104         1.760295         3.181139
 C        -2.119347         0.504905         2.500374
 C        -0.831534        -0.179471         2.144353
 H         0.939992        -0.498397        -0.056978
 H        -1.771053         0.289383        -1.041242
 H        -2.148469        -1.143291         0.132661
 H        -3.503641         1.489461         0.830195
 H        -0.905328         2.493592         0.055041
 H         0.034017         2.404297         2.467552
 H        -1.373345         3.493368         2.111271
 H        -2.971195        -0.014172         2.995587
 H        -0.151819         0.117088         2.903205
 H        -0.839184        -1.297555         2.106112
