19
Iteration:  2334
 O         0.690303         0.174163         0.096679
 C        -0.560906         0.443235         0.739896
 C        -1.767129        -0.059818        -0.016358
 C        -2.582088         0.922286         1.036191
 C        -1.359255         1.861165         0.868410
 C        -1.179632         2.589227         2.223501
 O        -1.737297         1.716340         3.195055
 C        -2.157991         0.547958         2.476153
 C        -0.814883        -0.165360         2.129602
 H         1.384211         0.171953         0.647249
 H        -1.947189         0.367114        -1.089625
 H        -2.064203        -1.060316        -0.360301
 H        -3.522596         1.379076         0.940243
 H        -1.306715         2.404800        -0.055579
 H        -0.177524         2.883728         2.492746
 H        -1.715439         3.646232         2.068926
 H        -2.839103         0.012597         3.105761
 H        -0.141594         0.007040         3.109194
 H        -0.747715        -1.220683         1.997220
