19
Iteration:   198charge 0 multiplicity 1
 O         0.792833         0.219735         0.242988
 C        -0.569654         0.397631         0.728037
 C        -1.885585         0.029544        -0.084425
 C        -2.656606         0.954078         0.991548
 C        -1.201184         1.787914         0.942592
 C        -0.976055         2.547344         2.269868
 O        -1.808155         1.768548         3.167872
 C        -2.236262         0.540295         2.425994
 C        -0.934489        -0.287247         2.045212
 H         1.236314         1.123314         0.212674
 H        -1.877008         0.437739        -1.131741
 H        -2.128112        -1.014807        -0.178585
 H        -3.617492         1.385701         0.725403
 H        -1.086341         2.358795         0.028947
 H         0.009009         2.608425         2.707068
 H        -1.348637         3.700435         2.374847
 H        -2.952887         0.091003         3.174695
 H        -0.214269        -0.279930         2.873854
 H        -1.148958        -1.355816         1.828952
