19
Iteration:  3434charge 0 multiplicity 1
 O         0.782958         0.279412         0.084726
 C        -0.587724         0.324472         0.753898
 C        -1.905626        -0.051868         0.120308
 C        -2.485832         0.974289         1.016089
 C        -1.271691         1.823420         0.844957
 C        -1.218018         2.610501         2.232244
 O        -1.789706         1.733452         3.184144
 C        -2.150672         0.533694         2.337910
 C        -0.803860        -0.217401         2.148109
 H         1.327172         0.121024         0.808987
 H        -2.114843         0.222056        -0.885535
 H        -2.132166        -1.095320         0.293462
 H        -3.513700         1.206475         0.739536
 H        -1.203408         2.508797        -0.111016
 H        -0.167173         2.867766         2.350974
 H        -1.891302         3.620402         2.174433
 H        -3.022938         0.019793         2.826168
 H        -0.044519         0.194846         2.826079
 H        -0.935476        -1.329433         2.241906
