19
Iteration:  2307charge 0 multiplicity 1
 O         0.659803         0.216013         0.202311
 C        -0.593658         0.425855         0.698698
 C        -1.930581        -0.015799        -0.033932
 C        -2.501246         0.868245         1.025479
 C        -1.291091         1.880652         0.851802
 C        -1.102414         2.591695         2.236237
 O        -1.895726         1.768301         3.111194
 C        -2.064588         0.505287         2.525978
 C        -0.706081        -0.210918         2.098436
 H         1.311677         0.368158         0.788362
 H        -2.024317         0.381362        -1.022787
 H        -2.342902        -1.029555         0.002378
 H        -3.563656         1.357253         1.009017
 H        -1.320292         2.374478        -0.208595
 H        -0.022788         2.527323         2.509295
 H        -1.410392         3.667984         2.338158
 H        -2.793302        -0.075769         3.153712
 H         0.054175        -0.031339         2.778447
 H        -0.734325        -1.321219         1.814049
