19
Iteration:    83charge 0 multiplicity 1
 O         0.755096         0.348272         0.089307
 C        -0.550522         0.348276         0.735640
 C        -1.971841         0.029269        -0.083177
 C        -2.445866         1.050665         0.915538
 C        -1.076672         1.783763         0.926330
 C        -1.085837         2.489579         2.329452
 O        -1.922513         1.676036         3.215311
 C        -2.196552         0.572734         2.469028
 C        -0.889371        -0.238903         2.221805
 H         0.915172        -0.635944        -0.254320
 H        -1.669725         0.489620        -1.098183
 H        -2.596974        -0.951703        -0.215213
 H        -3.346211         1.654411         0.520045
 H        -0.907220         2.470481         0.039404
 H        -0.052036         2.808287         2.701345
 H        -1.616568         3.432906         2.223966
 H        -2.973228        -0.059347         2.945953
 H        -0.095162        -0.157307         3.048565
 H        -1.269837        -1.352744         2.057886
