19
Iteration:     3charge 0 multiplicity 1
 O         0.662618         0.186696         0.135370
 C        -0.571948         0.386720         0.718269
 C        -1.852497         0.079169        -0.047046
 C        -2.513260         1.053363         0.981897
 C        -1.182261         1.859022         0.933545
 C        -1.036072         2.513018         2.332492
 O        -1.891316         1.676572         3.168037
 C        -2.182467         0.520560         2.399029
 C        -0.879790        -0.240087         2.087543
 H         1.392770         0.244478         0.866233
 H        -1.821561         0.557437        -1.092756
 H        -2.241221        -0.941262        -0.092075
 H        -3.419577         1.559449         0.764413
 H        -1.032809         2.552944         0.121456
 H         0.023368         2.491360         2.743923
 H        -1.386505         3.495021         2.327030
 H        -3.017173        -0.017181         2.873454
 H        -0.115289         0.024667         2.859212
 H        -1.001592        -1.337152         1.915334
