19
Iteration:  2550
 O         0.629246         0.296974        -0.042075
 C        -0.567762         0.419225         0.795769
 C        -1.796033        -0.076069         0.036626
 C        -2.549213         0.962687         1.042916
 C        -1.253361         1.797436         0.893798
 C        -1.053341         2.529939         2.269101
 O        -1.952438         1.748093         3.075354
 C        -2.162907         0.520574         2.468840
 C        -0.728429        -0.191226         2.237449
 H         1.399410         0.689182         0.348205
 H        -1.794256         0.429760        -0.973115
 H        -1.941551        -1.162503        -0.030339
 H        -3.523602         1.502689         0.921841
 H        -1.236446         2.331427        -0.158572
 H         0.052445         2.329766         2.551259
 H        -1.277444         3.511986         2.444878
 H        -2.835169        -0.115554         3.001710
 H        -0.276992        -0.051997         3.156738
 H        -0.964032        -1.227945         2.274632
