19
Iteration:   806charge 0 multiplicity 1
 O         0.661187         0.356835         0.213507
 C        -0.576350         0.388048         0.773278
 C        -1.940548         0.055699        -0.057371
 C        -2.463995         1.016302         0.941503
 C        -1.235638         1.864186         0.871142
 C        -1.034670         2.547485         2.272221
 O        -1.845791         1.684079         3.151220
 C        -2.098299         0.493531         2.429284
 C        -0.911987        -0.293922         2.138373
 H         0.985820        -0.630475         0.418870
 H        -2.018522         0.283560        -1.166724
 H        -2.110042        -1.009061         0.063882
 H        -3.457165         1.475859         0.911669
 H        -0.952135         2.379173        -0.026378
 H         0.066948         2.396997         2.497355
 H        -1.323115         3.633239         2.366665
 H        -2.982797        -0.126478         2.827157
 H        -0.051336        -0.017562         2.785089
 H        -0.962490        -1.378515         2.079733
