19
Iteration:  4573
 O         0.716776        -0.012362         0.091218
 C        -0.520172         0.461521         0.702160
 C        -1.888038         0.149723        -0.082007
 C        -2.559707         1.107678         1.014134
 C        -1.224699         1.920187         0.941719
 C        -1.197262         2.640680         2.322781
 O        -1.879417         1.583454         3.225835
 C        -2.140557         0.454658         2.429629
 C        -0.709924        -0.251664         2.114552
 H         1.498383         0.726143         0.173123
 H        -1.953824         0.725969        -1.027853
 H        -2.253227        -0.898389        -0.182276
 H        -3.570611         1.527803         0.840856
 H        -1.369873         2.397400        -0.034952
 H        -0.260228         2.986936         2.737619
 H        -1.912146         3.637128         2.433448
 H        -2.918747        -0.198608         2.974592
 H         0.089664         0.020650         2.849871
 H        -0.754611        -1.363566         1.861439
