19
Iteration:  4624
 O         0.750736         0.372513         0.172125
 C        -0.535249         0.378913         0.715647
 C        -1.966753        -0.004748        -0.009716
 C        -2.474866         1.056584         1.002267
 C        -1.172131         1.810141         0.902349
 C        -1.044583         2.382917         2.307029
 O        -1.939058         1.703548         3.156789
 C        -2.153653         0.488923         2.389068
 C        -0.832558        -0.212440         2.150865
 H         0.646727         0.693666        -0.717912
 H        -2.077302         0.472771        -0.993226
 H        -2.547643        -1.046185        -0.014817
 H        -3.496717         1.448764         0.990600
 H        -1.017039         2.602348         0.092877
 H        -0.003311         2.168974         2.694730
 H        -1.253545         3.456339         2.361181
 H        -2.984384        -0.043674         2.844759
 H        -0.057018        -0.002545         2.932516
 H        -0.929064        -1.263518         2.073596
