19
Iteration:  4278charge 0 multiplicity 1
 O         0.708393         0.097433         0.184700
 C        -0.564701         0.376292         0.733595
 C        -1.779365         0.087624        -0.073067
 C        -2.504072         1.017788         0.956132
 C        -1.285587         1.885455         0.977291
 C        -1.219724         2.671140         2.278487
 O        -1.820460         1.677063         3.249718
 C        -2.150144         0.432304         2.403053
 C        -0.798549        -0.233890         2.087047
 H         0.606844         0.321621        -0.860991
 H        -1.663970         0.618437        -0.966696
 H        -2.164732        -0.909250        -0.018920
 H        -3.447123         1.446491         0.749445
 H        -1.259540         2.494676        -0.033541
 H        -0.260985         2.798989         2.734372
 H        -1.626084         3.693446         2.357435
 H        -2.836536        -0.133069         3.040929
 H        -0.076293         0.240886         2.840373
 H        -0.743386        -1.307277         1.878892
