19
Iteration:  2766charge 0 multiplicity 1
 O         0.735636         0.374068         0.065922
 C        -0.543988         0.378053         0.762058
 C        -1.903213        -0.095008         0.065740
 C        -2.508181         0.954630         1.002235
 C        -1.135095         1.858970         0.839705
 C        -1.152689         2.620601         2.181500
 O        -1.805017         1.644748         3.161513
 C        -2.231742         0.497509         2.467515
 C        -0.820277        -0.171797         2.234617
 H         0.912777        -0.644573        -0.011553
 H        -2.104278         0.209702        -0.970151
 H        -2.248415        -1.185473         0.140088
 H        -3.446553         1.586847         0.863126
 H        -1.164456         2.430757        -0.125979
 H        -0.282026         2.912356         2.729761
 H        -1.964346         3.563475         2.109315
 H        -3.013408         0.010795         2.966175
 H        -0.021176         0.180439         2.870784
 H        -0.900360        -1.368777         2.161263
