19
Iteration:  3241
 O         0.647899         0.318792         0.024300
 C        -0.548886         0.397127         0.719295
 C        -1.813958        -0.151234         0.002249
 C        -2.525218         0.919106         0.999558
 C        -1.284474         1.816402         0.896420
 C        -1.057791         2.494675         2.264522
 O        -1.911093         1.808698         3.173553
 C        -2.170214         0.580271         2.449672
 C        -0.815309        -0.158381         2.225431
 H         1.506420         0.452832         0.638606
 H        -1.726617         0.301699        -0.984865
 H        -2.215180        -1.246675        -0.046321
 H        -3.526051         1.161715         0.635540
 H        -1.062726         2.348606        -0.038784
 H         0.048313         2.403605         2.528862
 H        -1.222428         3.550078         2.343781
 H        -2.877631        -0.046950         3.031186
 H        -0.000956         0.020335         2.994164
 H        -1.024291        -1.246979         2.055234
