19
Iteration:  4564charge 0 multiplicity 1
 O         0.719535         0.020763         0.115232
 C        -0.552566         0.398475         0.667919
 C        -1.892826         0.197202        -0.068836
 C        -2.538952         1.055667         1.002642
 C        -1.240403         1.878580         0.994420
 C        -1.214294         2.668320         2.309946
 O        -1.834262         1.619138         3.229505
 C        -2.134671         0.407487         2.414895
 C        -0.753531        -0.215256         2.051044
 H         1.409393         0.724240         0.539939
 H        -2.011295         0.582208        -1.094060
 H        -2.289709        -0.755426        -0.098208
 H        -3.582010         1.507971         0.913087
 H        -1.077156         2.604408         0.188374
 H        -0.252953         2.827248         2.716503
 H        -1.805515         3.560072         2.164200
 H        -2.920364        -0.233429         2.936368
 H         0.044117         0.118349         2.719084
 H        -0.644939        -1.366455         2.046424
