19
Iteration:  1282charge 0 multiplicity 1
 O         0.732704         0.237063         0.118410
 C        -0.566730         0.441034         0.717589
 C        -1.877886         0.050268         0.013055
 C        -2.585956         1.002679         0.968985
 C        -1.255067         1.865617         0.940490
 C        -1.128457         2.503081         2.290691
 O        -1.761560         1.690313         3.146195
 C        -2.156224         0.534449         2.417335
 C        -0.891042        -0.281028         2.100960
 H         1.395634         0.120751         0.953655
 H        -1.884467         0.486906        -0.898949
 H        -2.268274        -0.992826        -0.151280
 H        -3.571811         1.332715         0.747306
 H        -0.951071         2.427722         0.086160
 H        -0.124100         2.780906         2.588601
 H        -1.603811         3.509301         2.096291
 H        -2.927579         0.080520         3.044079
 H        -0.150002        -0.056958         2.863731
 H        -0.809845        -1.413557         2.055658
