19
Iteration:  4030charge 0 multiplicity 1
 O         0.736926         0.235989         0.269178
 C        -0.563248         0.343507         0.697872
 C        -1.900433         0.042028        -0.026665
 C        -2.482343         1.021942         1.030891
 C        -1.228126         1.840268         0.862694
 C        -1.133667         2.540389         2.245135
 O        -1.857204         1.726604         3.171595
 C        -2.124707         0.478589         2.420847
 C        -0.864234        -0.291255         2.098444
 H         0.992563         1.072165        -0.314232
 H        -2.012218         0.636646        -0.991144
 H        -2.272930        -0.975428        -0.058015
 H        -3.424112         1.573295         0.933438
 H        -1.169771         2.428519         0.017772
 H        -0.021462         2.730962         2.434728
 H        -1.661257         3.472796         2.271566
 H        -2.869835        -0.026375         3.064401
 H         0.018932        -0.160926         2.768482
 H        -0.985529        -1.359410         1.890455
