19
Iteration:  2863
 O         0.604043         0.203598         0.016542
 C        -0.523762         0.439251         0.781017
 C        -1.813857        -0.059933         0.058224
 C        -2.486901         0.990490         1.002762
 C        -1.221469         1.881964         0.944746
 C        -1.174890         2.569831         2.279681
 O        -1.855276         1.711946         3.136803
 C        -2.154506         0.561846         2.378700
 C        -0.815052        -0.248781         2.224455
 H         1.365852         0.677408         0.224856
 H        -1.787416         0.062475        -1.010306
 H        -1.782759        -1.194696         0.081375
 H        -3.577641         1.324951         0.877866
 H        -1.102258         2.442150        -0.042241
 H        -0.055613         2.806901         2.430876
 H        -1.697920         3.446466         2.146332
 H        -2.935367        -0.039102         2.870983
 H        -0.059081         0.005554         2.960597
 H        -0.961625        -1.290078         1.983728
