19
Iteration:   210charge 0 multiplicity 1
 O         0.723839         0.171656         0.250600
 C        -0.592041         0.480200         0.708954
 C        -1.843464        -0.008545        -0.083211
 C        -2.553696         0.900305         0.930602
 C        -1.193167         1.888573         0.925264
 C        -1.004789         2.480454         2.284298
 O        -1.737904         1.674616         3.195513
 C        -2.227426         0.552593         2.398761
 C        -1.015219        -0.163243         2.111314
 H         1.266218         1.065824         0.228520
 H        -2.128429         0.510306        -1.058020
 H        -1.977815        -1.041883        -0.060968
 H        -3.590610         1.279943         0.845320
 H        -1.075858         2.622645         0.113987
 H         0.061228         2.502751         2.491053
 H        -1.517979         3.593032         2.151820
 H        -3.080892        -0.013108         2.908636
 H        -0.233425         0.113791         2.858913
 H        -1.228621        -1.240100         2.087798
