19
Iteration:  4888charge 0 multiplicity 1
 O         0.590081         0.259186        -0.018231
 C        -0.546267         0.443748         0.762875
 C        -1.862358        -0.057594         0.055716
 C        -2.514454         0.976562         0.970747
 C        -1.185681         1.811952         0.917178
 C        -1.032725         2.522352         2.328477
 O        -1.999363         1.737070         3.108150
 C        -2.135651         0.541977         2.360161
 C        -0.756654        -0.151404         2.257695
 H         1.408562         0.041765         0.552912
 H        -1.860639         0.260066        -0.990352
 H        -2.150198        -1.064617         0.227785
 H        -3.533575         1.207440         0.687237
 H        -1.018760         2.323543        -0.091677
 H         0.011451         2.311177         2.751790
 H        -1.194713         3.666010         2.422670
 H        -2.841646        -0.122822         2.960218
 H        -0.042427         0.175225         3.027763
 H        -0.729726        -1.275986         2.181935
