19
Iteration:  3701charge 0 multiplicity 1
 O         0.742214         0.235929         0.194803
 C        -0.547191         0.412461         0.755306
 C        -1.875084        -0.035006         0.031646
 C        -2.561106         1.007894         1.028746
 C        -1.267576         1.838983         0.920669
 C        -1.104387         2.548412         2.194802
 O        -1.881994         1.777276         3.121631
 C        -2.180366         0.474693         2.456321
 C        -0.745774        -0.266174         2.092546
 H         0.710200         0.092208        -0.689744
 H        -1.902932         0.420873        -0.989982
 H        -1.985351        -1.060728         0.071852
 H        -3.580279         1.552248         0.998192
 H        -1.169925         2.483455         0.014442
 H        -0.118077         2.715619         2.486084
 H        -1.600298         3.587752         2.065299
 H        -2.899580         0.013571         3.168634
 H        -0.097239         0.064314         2.952276
 H        -0.634567        -1.349508         2.116913
