19
Iteration:    19charge 0 multiplicity 1
 O         0.822119         0.247925         0.284270
 C        -0.632787         0.316166         0.602253
 C        -1.958736         0.097922        -0.183614
 C        -2.542985         1.011541         1.027000
 C        -1.219048         1.782521         0.915231
 C        -0.944781         2.494975         2.263286
 O        -1.878338         1.720800         3.268520
 C        -2.219607         0.532919         2.453931
 C        -0.890353        -0.213074         1.987290
 H         1.159390         0.155320         1.160706
 H        -1.968890         0.771132        -1.013711
 H        -2.330419        -0.885383        -0.562764
 H        -3.570547         1.514484         0.940309
 H        -1.287708         2.373847        -0.033478
 H         0.050708         2.520325         2.677963
 H        -1.334719         3.597643         2.295434
 H        -2.867023        -0.092090         3.081697
 H        -0.029428         0.052343         2.620266
 H        -0.914713        -1.278775         2.216896
