19
Iteration:  3572charge 0 multiplicity 1
 O         0.717571         0.296666         0.246057
 C        -0.603870         0.392707         0.728621
 C        -1.935665        -0.071385         0.007509
 C        -2.567926         0.903755         0.992924
 C        -1.227114         1.805513         0.907011
 C        -1.178457         2.630728         2.200194
 O        -1.869857         1.791475         3.139147
 C        -2.015340         0.519653         2.462888
 C        -0.747541        -0.208769         2.052340
 H         1.052774        -0.715631         0.240326
 H        -2.153416         0.197128        -1.096803
 H        -2.265212        -1.131760         0.077642
 H        -3.529549         1.473623         0.751028
 H        -1.053235         2.410533         0.097027
 H        -0.114505         2.841728         2.619280
 H        -1.635067         3.577464         2.045209
 H        -2.680182        -0.051152         3.176961
 H         0.081135         0.096980         2.721118
 H        -0.848661        -1.260642         2.002372
