19
Iteration:  4558
 O         0.700445         0.079081         0.129463
 C        -0.590738         0.369869         0.676056
 C        -1.916020         0.186385        -0.070892
 C        -2.485176         0.995522         1.017771
 C        -1.233340         1.908489         1.006233
 C        -1.223192         2.577598         2.311695
 O        -1.813509         1.660939         3.229354
 C        -2.108821         0.429548         2.383672
 C        -0.802347        -0.210661         2.001263
 H         1.328187         0.579102         0.701337
 H        -1.860309         0.589887        -1.089750
 H        -2.256374        -0.937065        -0.077385
 H        -3.434040         1.479563         0.980736
 H        -0.907566         2.660294         0.265421
 H        -0.167055         2.816228         2.710067
 H        -1.853941         3.564596         2.111531
 H        -2.810856        -0.145234         2.917989
 H        -0.072200         0.221290         2.713501
 H        -0.736691        -1.255232         2.125686
