19
Iteration:  3603
 O         0.708308         0.229086         0.114337
 C        -0.516299         0.453854         0.804774
 C        -1.844438        -0.038030         0.103359
 C        -2.603526         0.929102         0.996781
 C        -1.277202         1.866885         0.848385
 C        -1.190666         2.597642         2.145655
 O        -1.769846         1.677496         3.166176
 C        -2.135590         0.525772         2.428994
 C        -0.825655        -0.156877         2.155131
 H         1.207300        -0.451549         0.407811
 H        -1.913981         0.426201        -0.914205
 H        -2.172638        -1.040542         0.048812
 H        -3.550913         1.416678         0.579513
 H        -1.158361         2.376050        -0.108491
 H        -0.097271         2.745255         2.412662
 H        -1.766984         3.582609         2.205258
 H        -2.779660        -0.154439         3.034703
 H        -0.200270         0.155838         3.017831
 H        -0.753914        -1.192334         2.044009
