19
Iteration:  2526charge 0 multiplicity 1
 O         0.688364         0.249323         0.121170
 C        -0.648576         0.449344         0.693641
 C        -1.906601        -0.077001         0.030562
 C        -2.497407         0.931033         0.997907
 C        -1.229293         1.843256         0.897825
 C        -1.080038         2.497938         2.262471
 O        -1.938614         1.752577         3.173463
 C        -2.108881         0.522343         2.481803
 C        -0.707858        -0.131037         2.040526
 H         1.512765         0.409485         0.786799
 H        -2.061103         0.187434        -1.019932
 H        -2.340555        -1.159268         0.284181
 H        -3.566311         1.308933         0.779717
 H        -1.348490         2.492457        -0.020508
 H         0.036062         2.528596         2.572768
 H        -1.433624         3.500820         2.264173
 H        -2.790861        -0.193625         2.846476
 H         0.080972         0.217446         2.641491
 H        -0.838711        -1.243810         2.302157
