19
Iteration:  4673
 O         0.742261         0.303999         0.314196
 C        -0.585232         0.453213         0.685356
 C        -1.841863         0.087469        -0.082783
 C        -2.575267         0.939356         0.939730
 C        -1.342700         1.870329         0.863589
 C        -1.015525         2.538507         2.229093
 O        -1.750003         1.622545         3.247581
 C        -2.149195         0.508904         2.486760
 C        -0.923610        -0.251416         2.078887
 H         0.804260         0.038739        -0.660367
 H        -1.959680         0.447806        -1.146272
 H        -1.986619        -1.013846        -0.029168
 H        -3.536673         1.450243         0.771498
 H        -1.236447         2.480599         0.016052
 H         0.055738         2.489860         2.496598
 H        -1.502133         3.636028         2.360161
 H        -2.902855        -0.074639         3.022381
 H        -0.099636        -0.165202         2.769046
 H        -1.199733        -1.361523         2.029038
