19
Iteration:   630charge 0 multiplicity 1
 O         0.649779         0.261832         0.186732
 C        -0.560629         0.358247         0.743755
 C        -1.962023         0.049840        -0.044330
 C        -2.522639         1.059968         1.001669
 C        -1.148405         1.841643         0.927706
 C        -1.093789         2.527519         2.315371
 O        -1.805724         1.645832         3.073777
 C        -2.115938         0.542158         2.387758
 C        -0.866305        -0.264054         2.117287
 H         1.392654         0.309625         0.888454
 H        -2.012956         0.548479        -0.990195
 H        -2.225314        -1.051261        -0.041039
 H        -3.494512         1.652040         0.778750
 H        -1.114645         2.395498        -0.057000
 H        -0.025188         2.676277         2.781377
 H        -1.587678         3.441551         2.266708
 H        -3.013839         0.074033         2.903314
 H        -0.082968        -0.076643         2.853142
 H        -0.997094        -1.371955         2.065432
