19
Iteration:  2322
 O         0.745770         0.142436         0.125227
 C        -0.556770         0.442723         0.710066
 C        -1.819913         0.037037        -0.031344
 C        -2.616232         0.920068         1.091922
 C        -1.404215         1.858367         0.909453
 C        -1.124720         2.578753         2.150873
 O        -1.813003         1.768601         3.161214
 C        -2.090256         0.476680         2.465771
 C        -0.799598        -0.210364         2.121550
 H         1.383774         0.304331         0.908117
 H        -1.904944         0.696775        -0.936443
 H        -1.943174        -1.014697        -0.074208
 H        -3.673092         1.140532         0.941334
 H        -1.417067         2.508395        -0.000805
 H        -0.087110         2.617048         2.365750
 H        -1.603671         3.661661         2.140615
 H        -2.731726        -0.090853         3.121131
 H         0.064741         0.139756         2.813011
 H        -0.965631        -1.275184         2.127323
