19
Iteration:  2695
 O         0.708780         0.373258         0.152379
 C        -0.594217         0.431997         0.724342
 C        -1.912735        -0.130341        -0.018149
 C        -2.558689         0.938600         1.014760
 C        -1.300705         1.802528         0.826980
 C        -1.018043         2.519606         2.220006
 O        -1.907225         1.716820         3.188647
 C        -2.152815         0.549621         2.473143
 C        -0.720056        -0.110854         2.158203
 H         0.998563        -0.628940        -0.020515
 H        -1.747797         0.164059        -1.091663
 H        -2.285513        -1.134220         0.153261
 H        -3.561554         1.337226         0.787118
 H        -1.197039         2.339174        -0.138130
 H         0.073021         2.359656         2.498987
 H        -1.327014         3.520774         2.361167
 H        -2.900409        -0.113800         3.126936
 H        -0.009820         0.358080         2.905035
 H        -0.677951        -1.139504         2.183663
