19
Iteration:  4827
 O         0.685424         0.259751         0.302665
 C        -0.645317         0.397361         0.785513
 C        -1.806565         0.005976        -0.063119
 C        -2.562972         1.061647         1.018336
 C        -1.263598         1.851452         0.873842
 C        -1.158740         2.676391         2.177429
 O        -1.707839         1.651704         3.149516
 C        -2.126533         0.460637         2.411540
 C        -0.839748        -0.295644         2.136987
 H         0.780183        -0.260717        -0.433726
 H        -1.732172         0.705169        -0.974552
 H        -2.295567        -1.054904        -0.188635
 H        -3.604086         1.358702         0.886687
 H        -1.126592         2.341171        -0.020983
 H        -0.117632         2.879996         2.385668
 H        -1.850501         3.566175         2.375770
 H        -2.785671        -0.069801         2.999482
 H        -0.011147        -0.082233         2.799995
 H        -0.944206        -1.352509         1.871875
