19
Iteration:  1369charge 0 multiplicity 1
 O         0.616636         0.132638         0.128098
 C        -0.597246         0.425767         0.714868
 C        -1.852426         0.067520        -0.009481
 C        -2.571980         0.985155         1.026188
 C        -1.173820         1.873864         0.965749
 C        -1.086868         2.612397         2.325998
 O        -1.953042         1.663723         3.150184
 C        -2.112146         0.499558         2.360624
 C        -0.732745        -0.196521         2.042883
 H         1.387038         0.454435         0.663651
 H        -1.769708         0.418572        -0.993080
 H        -2.095512        -1.089895        -0.005384
 H        -3.497018         1.513714         0.971602
 H        -1.052350         2.384630         0.019833
 H        -0.090005         2.489082         2.865990
 H        -1.359789         3.643467         2.337977
 H        -2.892704        -0.103735         2.889731
 H         0.039058         0.164789         2.682956
 H        -0.664020        -1.326903         2.000310
