19
Iteration:  2820
 O         0.749703         0.315227         0.131225
 C        -0.568518         0.428902         0.671999
 C        -1.916511        -0.017700        -0.013133
 C        -2.520651         0.895176         1.059909
 C        -1.296660         1.778163         0.890481
 C        -1.057158         2.432235         2.202174
 O        -1.906003         1.818735         3.125914
 C        -2.103338         0.455730         2.445139
 C        -0.797486        -0.143075         2.147715
 H         1.302593         0.274529         1.045861
 H        -2.165424         0.322970        -1.018873
 H        -2.357966        -1.070343         0.033743
 H        -3.528092         1.437316         1.091788
 H        -1.341345         2.515634         0.032690
 H        -0.069036         2.425366         2.601164
 H        -1.232546         3.597237         2.190625
 H        -2.774264        -0.062656         3.062108
 H        -0.083688         0.267163         2.840406
 H        -1.018236        -1.294976         2.158351
