19
Iteration:  1653
 O         0.739280         0.201739         0.121605
 C        -0.552522         0.453520         0.654239
 C        -1.803961         0.036744        -0.091142
 C        -2.528980         0.924392         1.059205
 C        -1.219484         1.859808         0.940702
 C        -1.094351         2.557863         2.201212
 O        -1.918626         1.654066         3.257017
 C        -2.218059         0.568472         2.477158
 C        -0.793805        -0.166079         2.135053
 H         0.579460        -0.401860        -0.496012
 H        -1.818743         0.412645        -1.058740
 H        -2.133550        -1.033610        -0.034484
 H        -3.517428         1.514782         0.810718
 H        -1.125828         2.612858         0.126967
 H        -0.175170         2.587918         2.731065
 H        -1.443317         3.677446         2.362939
 H        -2.943753        -0.107369         3.096690
 H        -0.028606         0.084561         2.861473
 H        -0.881033        -1.349352         2.040842
