19
Iteration:  2722charge 0 multiplicity 1
 O         0.702798         0.275714         0.158943
 C        -0.579262         0.499044         0.712498
 C        -1.828152        -0.012039        -0.033277
 C        -2.539938         0.870708         1.109242
 C        -1.306110         1.855047         0.834832
 C        -1.109960         2.553821         2.229330
 O        -1.889250         1.773893         3.114786
 C        -2.090829         0.534209         2.489259
 C        -0.758715        -0.236727         2.175304
 H         0.817641        -0.671282        -0.262857
 H        -1.914174         0.331581        -1.054194
 H        -1.951932        -1.148227        -0.078956
 H        -3.644328         0.938271         1.019157
 H        -1.166147         2.479963        -0.055429
 H        -0.066133         2.560710         2.492377
 H        -1.579374         3.658477         2.331703
 H        -2.858275         0.088667         3.052040
 H        -0.072556         0.122807         2.924986
 H        -0.918409        -1.405651         2.060326
