19
Iteration:   897charge 0 multiplicity 1
 O         0.694756         0.126738         0.031875
 C        -0.595966         0.421462         0.698559
 C        -1.826236         0.012767         0.036819
 C        -2.456313         1.054918         1.008252
 C        -1.171048         1.903622         0.870821
 C        -1.083340         2.482548         2.345131
 O        -1.929913         1.709601         3.211855
 C        -2.211435         0.532605         2.426291
 C        -0.852561        -0.234942         2.114272
 H         1.412061         0.799383         0.508901
 H        -1.711875         0.481370        -1.050785
 H        -2.160705        -1.064410        -0.151357
 H        -3.414026         1.619046         0.889242
 H        -1.372162         2.555271        -0.036680
 H         0.040539         2.495219         2.816548
 H        -1.456083         3.447301         2.300498
 H        -3.002087         0.056451         2.969133
 H        -0.168234        -0.006292         2.978365
 H        -0.939450        -1.340606         1.884552
