19
Iteration:  4428
 O         0.715476         0.082801         0.111860
 C        -0.525924         0.382373         0.740031
 C        -1.876178         0.055566        -0.042319
 C        -2.485447         1.024960         0.946607
 C        -1.188159         1.838950         0.980170
 C        -1.243925         2.708856         2.333202
 O        -1.855823         1.607618         3.215313
 C        -2.139165         0.566170         2.409968
 C        -0.756306        -0.236770         2.101987
 H         0.769968         0.829511        -0.531498
 H        -1.932882         0.434982        -1.071814
 H        -2.322998        -1.009931        -0.193543
 H        -3.470827         1.381510         0.832608
 H        -1.143602         2.648644         0.245811
 H        -0.228995         2.911925         2.609991
 H        -2.047278         3.531005         2.436824
 H        -2.860416        -0.037691         2.882887
 H         0.127510        -0.008722         2.782552
 H        -0.950512        -1.313740         2.153507
