19
Iteration:  4355
 O         0.760503         0.356082         0.225237
 C        -0.623122         0.486339         0.752457
 C        -1.863551        -0.012640        -0.022085
 C        -2.522244         0.958551         1.006718
 C        -1.298268         1.810071         0.913442
 C        -0.919887         2.387596         2.220035
 O        -1.886620         1.691790         3.194317
 C        -2.261191         0.523224         2.445471
 C        -0.850594        -0.154467         2.054493
 H         0.766819         0.585849        -0.658109
 H        -1.933675         0.353601        -1.036602
 H        -2.066842        -1.073841        -0.016431
 H        -3.453959         1.365029         0.659301
 H        -1.209718         2.383154        -0.083845
 H         0.147219         2.122387         2.527244
 H        -1.141300         3.374053         2.375124
 H        -2.789121        -0.160122         3.143583
 H        -0.124163         0.062865         2.890920
 H        -1.006520        -1.250934         2.060811
