19
Iteration:  1487
 O         0.603517         0.243455        -0.000370
 C        -0.528810         0.327621         0.786096
 C        -1.784421         0.037817         0.057271
 C        -2.513007         0.993987         0.964001
 C        -1.241653         1.926523         0.943384
 C        -1.069871         2.517451         2.321121
 O        -1.944268         1.692755         3.124879
 C        -2.163688         0.501603         2.394234
 C        -0.793779        -0.194684         2.160114
 H         1.510851         0.189972         0.575055
 H        -1.634480         0.438975        -0.904516
 H        -2.270165        -0.961171        -0.046671
 H        -3.511113         1.360437         0.838964
 H        -1.225461         2.720225         0.190859
 H        -0.010986         2.422233         2.654165
 H        -1.239554         3.625131         2.359936
 H        -2.842467        -0.224846         2.837846
 H        -0.023162        -0.082253         2.909861
 H        -1.060870        -1.284587         2.083030
