19
Iteration:   472
 O         0.718038         0.252928         0.140314
 C        -0.543836         0.359613         0.697925
 C        -1.973461        -0.062572        -0.029420
 C        -2.448755         1.077366         0.963850
 C        -1.132626         1.882181         0.931572
 C        -1.110416         2.522554         2.326489
 O        -1.889826         1.717700         3.194621
 C        -2.147655         0.543390         2.411967
 C        -0.873282        -0.287291         2.063517
 H         1.246248         0.454542         0.847611
 H        -2.186830         0.181247        -1.155569
 H        -2.401463        -1.031123         0.221891
 H        -3.376142         1.601266         0.735907
 H        -0.939618         2.555305         0.078100
 H         0.023064         2.749597         2.625910
 H        -1.569982         3.468196         2.194317
 H        -3.030203        -0.028264         2.809402
 H        -0.109767        -0.033797         2.829558
 H        -1.038407        -1.364536         2.073219
