19
Iteration:  2027
 O         0.673946         0.346654         0.204323
 C        -0.610927         0.454115         0.696428
 C        -1.824609        -0.110185         0.003234
 C        -2.567549         0.900806         0.908188
 C        -1.344928         1.836135         0.826211
 C        -1.026490         2.526761         2.205406
 O        -1.771710         1.755256         3.250486
 C        -2.146949         0.533992         2.519134
 C        -0.846791        -0.155983         2.127614
 H         0.913007        -0.622935         0.150818
 H        -1.905234         0.281638        -1.030912
 H        -1.863993        -1.299976         0.076166
 H        -3.658018         1.173222         0.745590
 H        -1.332832         2.577388        -0.050908
 H         0.110204         2.424365         2.133022
 H        -1.245205         3.520566         2.323193
 H        -2.836299        -0.060976         3.131451
 H         0.031714         0.261973         2.755603
 H        -1.124480        -1.195680         2.073058
