19
Iteration:  1869charge 0 multiplicity 1
 O         0.617114         0.442052         0.106865
 C        -0.606428         0.434201         0.806748
 C        -1.800506        -0.125886         0.056955
 C        -2.532302         0.954159         0.988271
 C        -1.262047         1.892671         0.880824
 C        -0.939471         2.535394         2.279269
 O        -1.834002         1.697950         3.085710
 C        -2.201184         0.555087         2.376017
 C        -0.848645        -0.282317         2.230127
 H         0.869450        -0.445379         0.099366
 H        -1.858627         0.313364        -1.030310
 H        -2.001275        -1.214048         0.300256
 H        -3.547897         1.306791         0.630511
 H        -1.425253         2.318628        -0.108423
 H         0.150140         2.372022         2.455509
 H        -1.218046         3.519778         2.285351
 H        -2.983440        -0.039761         2.951591
 H        -0.123050        -0.065104         2.924311
 H        -0.999286        -1.345242         2.005351
