19
Iteration:  2263
 O         0.637621         0.283308        -0.095036
 C        -0.536050         0.479204         0.828631
 C        -1.856972        -0.159163         0.074537
 C        -2.505184         0.980711         0.964124
 C        -1.232845         1.840759         0.857442
 C        -1.058139         2.512649         2.272008
 O        -1.898488         1.742444         3.175528
 C        -2.206934         0.536676         2.432022
 C        -0.786393        -0.186549         2.275972
 H         1.415038         0.261106         0.383588
 H        -1.776638         0.251377        -0.909081
 H        -1.997603        -1.238823         0.040155
 H        -3.534373         1.362920         0.571469
 H        -1.162150         2.634071         0.011959
 H         0.007927         2.514515         2.564291
 H        -1.394839         3.566140         2.413348
 H        -3.035953        -0.059923         2.936427
 H        -0.170868         0.098920         3.055833
 H        -0.885829        -1.344023         2.193618
