19
Iteration:  3365
 O         0.696379         0.186472         0.039912
 C        -0.535338         0.456711         0.694736
 C        -1.890155        -0.055613         0.102492
 C        -2.562697         0.903063         0.969943
 C        -1.216386         1.844415         0.852229
 C        -1.045425         2.514207         2.233870
 O        -1.974145         1.775283         3.169263
 C        -2.157894         0.523632         2.451794
 C        -0.732574        -0.103398         2.184702
 H         1.412823         0.625637         0.685245
 H        -2.121005         0.177570        -1.009815
 H        -2.174456        -1.140725         0.225664
 H        -3.643422         1.198963         0.893392
 H        -1.020820         2.420467         0.057967
 H        -0.076978         2.547301         2.771706
 H        -1.561429         3.515694         2.156861
 H        -2.913090        -0.104269         2.955258
 H         0.151956         0.136026         2.915375
 H        -0.821687        -1.252703         2.128942
