19
Iteration:  4972
 O         0.720994         0.216362         0.199812
 C        -0.592525         0.415445         0.783934
 C        -1.900431        -0.055992        -0.049971
 C        -2.571191         0.937999         1.003794
 C        -1.266765         1.847053         0.861928
 C        -1.224563         2.654583         2.145371
 O        -1.642820         1.687366         3.175288
 C        -2.128337         0.529577         2.425087
 C        -0.841423        -0.220849         2.174157
 H         1.254776         0.467036         0.891707
 H        -1.751438         0.359252        -1.049559
 H        -2.370854        -1.077193        -0.301694
 H        -3.658263         1.149495         0.865799
 H        -1.230749         2.507265        -0.090532
 H        -0.265084         3.041566         2.351189
 H        -1.918597         3.528436         1.988757
 H        -2.892627        -0.038232         3.092927
 H        -0.137885         0.103217         3.021232
 H        -0.862450        -1.291323         2.110356
