19
Iteration:  4748
 O         0.655137         0.080088         0.042006
 C        -0.600599         0.478792         0.725563
 C        -1.836055         0.066267        -0.039772
 C        -2.490827         0.965423         1.042627
 C        -1.218557         1.918636         0.921509
 C        -1.005861         2.515019         2.349582
 O        -1.993343         1.671565         3.140733
 C        -2.140830         0.508868         2.418311
 C        -0.809700        -0.134588         2.155880
 H         1.273625         0.778169         0.028762
 H        -1.798372         0.454128        -1.153285
 H        -1.988072        -1.142497        -0.059375
 H        -3.520666         1.257347         0.864010
 H        -1.318181         2.523411         0.009780
 H        -0.021806         2.355997         2.822281
 H        -1.230268         3.595298         2.549242
 H        -2.794920        -0.178060         3.010262
 H        -0.156588         0.245409         2.912150
 H        -0.706753        -1.235254         2.216230
