19
Iteration:  4168charge 0 multiplicity 1
 O         0.739641         0.209161         0.271165
 C        -0.609708         0.405663         0.654558
 C        -1.906322        -0.032835        -0.071422
 C        -2.506573         1.011774         0.932339
 C        -1.200590         1.838011         0.858072
 C        -1.137392         2.563807         2.313806
 O        -1.843058         1.704964         3.257551
 C        -2.104854         0.499185         2.471813
 C        -0.863502        -0.224927         2.059067
 H         0.914011         0.772677        -0.443408
 H        -1.922403         0.305104        -1.097790
 H        -2.308716        -1.070356        -0.010295
 H        -3.340988         1.647718         0.967250
 H        -1.067101         2.580825        -0.028305
 H        -0.141560         2.815128         2.701723
 H        -1.811468         3.570617         2.221466
 H        -2.749149        -0.152361         3.025553
 H         0.013221        -0.029320         2.758781
 H        -0.875597        -1.293824         1.849014
