19
Iteration:   515
 O         0.692379         0.224983         0.156457
 C        -0.609497         0.435646         0.717905
 C        -1.797286         0.023424        -0.130861
 C        -2.472440         0.937871         0.948326
 C        -1.293142         1.849575         0.882227
 C        -1.094211         2.510491         2.276824
 O        -1.747772         1.708833         3.212932
 C        -2.241050         0.556517         2.482783
 C        -0.920299        -0.222248         2.132606
 H         1.353289         0.055151         0.816703
 H        -1.789881         0.752854        -1.046380
 H        -2.023874        -1.011977        -0.200254
 H        -3.473960         1.330166         0.803650
 H        -1.302135         2.626384         0.108569
 H         0.041399         2.321398         2.449046
 H        -1.317991         3.607932         2.409567
 H        -3.090151         0.147411         3.142091
 H        -0.154379        -0.075402         2.930476
 H        -1.114850        -1.284872         1.968376
