19
Iteration:  2311charge 0 multiplicity 1
 O         0.685705         0.185282         0.177638
 C        -0.580100         0.419729         0.713736
 C        -1.920220         0.061666        -0.020812
 C        -2.523839         0.850815         1.044211
 C        -1.324408         1.856016         0.855093
 C        -1.108920         2.596377         2.195410
 O        -1.877931         1.779761         3.124581
 C        -2.077621         0.485074         2.527536
 C        -0.734466        -0.205994         2.079463
 H         1.421067         0.384557         0.943750
 H        -1.953056         0.295904        -1.101389
 H        -2.198779        -0.971919        -0.075405
 H        -3.559578         1.232270         0.977278
 H        -1.384278         2.462099        -0.100273
 H        -0.049578         2.612919         2.353884
 H        -1.433669         3.674946         2.518455
 H        -2.814310        -0.038057         3.120267
 H         0.147365        -0.068247         2.834733
 H        -0.762670        -1.282293         1.965938
