19
Iteration:  4120
 O         0.720183         0.183761         0.176971
 C        -0.554376         0.452396         0.711430
 C        -1.817105         0.025251        -0.092914
 C        -2.501459         1.029257         0.976671
 C        -1.219981         1.877058         0.906975
 C        -1.139690         2.572743         2.234358
 O        -1.890664         1.684807         3.252230
 C        -2.168589         0.521124         2.487307
 C        -0.804658        -0.240147         2.146385
 H         0.594114        -0.122290        -0.754116
 H        -1.875204         0.432554        -1.095281
 H        -2.049734        -1.025439        -0.054142
 H        -3.603606         1.417919         0.904260
 H        -1.102528         2.594860         0.080595
 H        -0.080419         2.720407         2.580342
 H        -1.747649         3.523076         2.344655
 H        -2.830335        -0.289509         2.874085
 H        -0.005066        -0.124430         2.866942
 H        -0.991450        -1.366977         1.965311
