19
Iteration:  3671charge 0 multiplicity 1
 O         0.640155         0.184634         0.186256
 C        -0.599984         0.421798         0.699658
 C        -1.835662        -0.138023        -0.011390
 C        -2.506519         0.946752         0.976211
 C        -1.269472         1.869720         0.863090
 C        -1.014481         2.527527         2.260499
 O        -1.899315         1.748829         3.189678
 C        -2.186119         0.508937         2.451272
 C        -0.774219        -0.091376         2.105408
 H         1.097664         1.062299        -0.153444
 H        -2.006155         0.202212        -1.050738
 H        -1.937392        -1.230854         0.101016
 H        -3.532832         1.359189         0.837699
 H        -1.249809         2.475701         0.041473
 H         0.092808         2.412995         2.533745
 H        -1.333458         3.553564         2.352425
 H        -2.856535        -0.074884         3.140999
 H        -0.107758         0.394498         2.829587
 H        -0.681973        -1.132648         2.228842
