19
Iteration:   512
 O         0.681960         0.224259         0.173667
 C        -0.604191         0.447641         0.714873
 C        -1.817437         0.053844        -0.123489
 C        -2.464399         0.934276         0.959432
 C        -1.288308         1.877722         0.879039
 C        -1.074955         2.480243         2.236694
 O        -1.753209         1.699817         3.195422
 C        -2.207870         0.534504         2.468457
 C        -0.943652        -0.217434         2.150616
 H         1.454465         0.056769         0.886792
 H        -1.791860         0.729821        -0.982839
 H        -2.019820        -1.015804        -0.201905
 H        -3.533182         1.305780         0.873529
 H        -1.237356         2.662261         0.104903
 H        -0.069374         2.376800         2.423452
 H        -1.397696         3.613621         2.414776
 H        -2.994349         0.037260         3.169952
 H        -0.165798        -0.075476         2.936156
 H        -1.188972        -1.299989         2.049984
