19
Iteration:  2665
 O         0.663561         0.432336         0.063028
 C        -0.535862         0.383853         0.764693
 C        -1.934569        -0.112983         0.099366
 C        -2.516660         0.986647         1.055803
 C        -1.190171         1.768292         0.926225
 C        -1.049900         2.578384         2.189197
 O        -1.931047         1.732768         3.100169
 C        -2.144157         0.514244         2.440201
 C        -0.757713        -0.231381         2.096805
 H         1.167487        -0.207219         0.456941
 H        -1.831102         0.059628        -0.931843
 H        -2.338586        -1.082525         0.423194
 H        -3.522372         1.413380         0.760598
 H        -1.108731         2.204119        -0.016028
 H        -0.054973         2.712827         2.585180
 H        -1.629336         3.599396         2.184003
 H        -2.898621        -0.060236         3.036528
 H        -0.090160        -0.063761         2.995212
 H        -0.761166        -1.344385         2.033249
