19
Iteration:  4717
 O         0.715000         0.075878         0.075832
 C        -0.601588         0.390031         0.729993
 C        -1.880456         0.007052        -0.044215
 C        -2.466693         1.121361         0.980472
 C        -1.105718         1.908883         0.933396
 C        -1.242936         2.641105         2.346528
 O        -1.890354         1.637418         3.230359
 C        -2.129728         0.540450         2.464761
 C        -0.776877        -0.288905         2.091958
 H         0.950927         0.987651        -0.359668
 H        -1.778022         0.324412        -1.140754
 H        -2.275173        -1.038880         0.024312
 H        -3.468995         1.536603         0.812075
 H        -1.069535         2.463071         0.046653
 H        -0.303806         2.990227         2.782156
 H        -2.039306         3.517361         2.145736
 H        -2.803415        -0.111963         2.957515
 H        -0.033769        -0.021969         2.825788
 H        -0.815621        -1.402288         1.990388
