19
Iteration:   142
 O         0.753283         0.095687         0.161651
 C        -0.529819         0.380747         0.656928
 C        -1.790091         0.032518        -0.051092
 C        -2.499893         1.085040         0.960672
 C        -1.282262         1.911180         0.944333
 C        -1.076649         2.448911         2.334453
 O        -1.902628         1.707704         3.291210
 C        -2.263518         0.563776         2.368998
 C        -0.836440        -0.151035         2.107617
 H         0.761244         0.178661        -0.730733
 H        -1.836778         0.285660        -1.073914
 H        -2.050131        -1.040380         0.125392
 H        -3.423807         1.452543         0.597210
 H        -1.116481         2.608624         0.162787
 H        -0.043080         2.223498         2.546099
 H        -1.350665         3.612637         2.529270
 H        -3.124103         0.052114         2.782693
 H        -0.102729         0.257792         2.826520
 H        -0.873183        -1.235065         2.147356
