19
Iteration:  2102
 O         0.686979         0.169613         0.064035
 C        -0.567506         0.479945         0.747341
 C        -1.775535         0.030895         0.057512
 C        -2.578216         0.900744         0.967192
 C        -1.360959         1.868911         0.895404
 C        -1.085694         2.579085         2.217304
 O        -1.845504         1.708948         3.178808
 C        -2.138840         0.512247         2.465310
 C        -0.793337        -0.126093         2.130795
 H         1.027240        -0.601087         0.415750
 H        -1.954499         0.200427        -0.988759
 H        -2.077234        -1.126023         0.308552
 H        -3.640767         1.345252         0.767809
 H        -1.144629         2.613603         0.009214
 H         0.020511         2.486470         2.479247
 H        -1.362391         3.689852         2.206557
 H        -2.740195        -0.202230         3.043160
 H        -0.163720         0.327702         2.945989
 H        -0.723146        -1.228387         2.164772
