19
Iteration:  2980charge 0 multiplicity 1
 O         0.765708         0.447626         0.170501
 C        -0.638137         0.369845         0.759733
 C        -1.946624        -0.032384         0.001871
 C        -2.510029         0.966957         1.020151
 C        -1.252291         1.782418         0.859866
 C        -1.023093         2.515529         2.182897
 O        -1.903044         1.787908         3.075740
 C        -2.165993         0.477179         2.452580
 C        -0.756166        -0.289071         2.263307
 H         0.839437        -0.465859        -0.181346
 H        -1.980354         0.285044        -0.979938
 H        -2.035442        -1.078580        -0.079203
 H        -3.552236         1.420728         0.947338
 H        -1.455891         2.311926         0.022269
 H         0.014214         2.436307         2.439166
 H        -1.336271         3.602513         2.382417
 H        -3.007335        -0.007734         3.124442
 H         0.224670         0.096031         2.707857
 H        -0.898352        -1.336226         2.205823
