19
Iteration:  3910
 O         0.639810         0.204509         0.106599
 C        -0.565190         0.466762         0.745887
 C        -1.789843        -0.034568         0.035333
 C        -2.519697         0.971497         0.986746
 C        -1.214568         1.925799         0.873356
 C        -1.030643         2.509889         2.279328
 O        -1.867125         1.681773         3.175360
 C        -2.212062         0.487699         2.402431
 C        -0.861180        -0.212402         2.127408
 H         1.181393         1.003571         0.101521
 H        -1.825574         0.292009        -0.990491
 H        -1.971740        -1.019394         0.187658
 H        -3.460820         1.480594         0.874384
 H        -1.162693         2.578806         0.081734
 H         0.013688         2.483068         2.545607
 H        -1.347618         3.572529         2.433117
 H        -3.084229        -0.027984         2.836827
 H        -0.268258        -0.132322         3.071725
 H        -1.014940        -1.286120         1.951197
