19
Iteration:  4405
 O         0.725256         0.196758         0.192520
 C        -0.585986         0.437728         0.667847
 C        -1.917654         0.081755         0.007483
 C        -2.485959         1.077531         1.057861
 C        -1.124365         1.807909         0.915208
 C        -1.185171         2.515209         2.266709
 O        -1.887541         1.707434         3.201216
 C        -2.200560         0.449888         2.395327
 C        -0.732155        -0.282212         2.085818
 H         0.956607         0.590228        -0.710380
 H        -1.868660         0.442001        -1.032189
 H        -2.196334        -1.014215        -0.084059
 H        -3.443211         1.572908         1.054440
 H        -1.120046         2.542416         0.138414
 H        -0.215980         2.849483         2.526884
 H        -1.945562         3.366281         2.190045
 H        -2.945087        -0.096710         2.907646
 H         0.025192         0.089536         2.791928
 H        -0.759179        -1.361340         2.182579
