19
Iteration:  2471
 O         0.633584         0.294983         0.049376
 C        -0.606533         0.411562         0.815412
 C        -1.797721        -0.046106         0.000009
 C        -2.514784         0.962199         1.023256
 C        -1.221308         1.866680         0.864928
 C        -1.237464         2.598856         2.155727
 O        -1.772754         1.792003         3.197395
 C        -2.089211         0.464832         2.475910
 C        -0.822285        -0.309571         2.159926
 H         1.403126        -0.046032         0.644659
 H        -1.710934         0.273291        -1.013244
 H        -2.067474        -1.184433        -0.097227
 H        -3.626057         1.293494         1.068961
 H        -1.023791         2.503576        -0.035935
 H        -0.223066         2.966740         2.562892
 H        -1.855544         3.451343         2.066582
 H        -2.928425         0.005027         2.995824
 H        -0.081799        -0.092018         2.867206
 H        -1.080559        -1.431355         2.059738
