19
Iteration:  3952charge 0 multiplicity 1
 O         0.687331         0.244570         0.191719
 C        -0.567300         0.412246         0.729986
 C        -1.974444         0.000302        -0.060159
 C        -2.432667         1.011657         1.069692
 C        -1.158548         1.891460         0.913867
 C        -1.054771         2.507682         2.306325
 O        -1.986372         1.722209         3.070101
 C        -2.104089         0.457679         2.394354
 C        -0.812876        -0.235042         2.175220
 H         0.712179         0.522444        -0.675300
 H        -1.960904         0.552038        -1.042960
 H        -2.326448        -1.048413        -0.104908
 H        -3.447098         1.346814         1.123676
 H        -1.138237         2.461156         0.051641
 H        -0.007568         2.347965         2.754417
 H        -1.159359         3.572302         2.444579
 H        -2.834899        -0.153761         2.952979
 H        -0.005405         0.188915         2.867754
 H        -0.688949        -1.303933         2.102130
