19
Iteration:   570charge 0 multiplicity 1
 O         0.658957         0.130659         0.025337
 C        -0.554528         0.366453         0.780761
 C        -1.912845         0.101947        -0.014081
 C        -2.525683         1.088549         0.960967
 C        -1.151337         1.854935         0.927225
 C        -1.038477         2.520878         2.336241
 O        -2.047944         1.716393         3.173125
 C        -2.197642         0.490834         2.384695
 C        -0.660978        -0.249285         2.153999
 H         1.365588         0.281685         0.564597
 H        -1.877568         0.444650        -1.100355
 H        -2.242201        -0.909806        -0.093173
 H        -3.459566         1.592289         0.940637
 H        -1.019612         2.566769         0.122972
 H        -0.062769         2.513747         2.721410
 H        -1.326936         3.600852         2.274547
 H        -2.923502        -0.142863         2.893150
 H        -0.000192         0.240901         2.897227
 H        -0.635329        -1.331391         2.252525
