19
Iteration:  4616charge 0 multiplicity 1
 O         0.738015         0.300208         0.123353
 C        -0.530393         0.401600         0.727638
 C        -1.950361        -0.020817        -0.012053
 C        -2.519900         1.003810         0.972749
 C        -1.167061         1.831765         0.900429
 C        -1.037790         2.460397         2.377470
 O        -1.941752         1.688344         3.178103
 C        -2.196804         0.541132         2.409507
 C        -0.790231        -0.269777         2.114769
 H         0.585736         0.882595        -0.678545
 H        -1.840645         0.428569        -1.036422
 H        -2.350710        -1.119165        -0.104792
 H        -3.357211         1.692247         0.994475
 H        -1.007316         2.626156         0.137450
 H        -0.048529         2.494137         2.889838
 H        -1.347312         3.659284         2.273370
 H        -3.050369        -0.074443         2.841043
 H        -0.125199         0.101572         2.916180
 H        -0.781123        -1.384780         2.074321
