19
Iteration:  3482charge 0 multiplicity 1
 O         0.773952         0.260580         0.147725
 C        -0.535050         0.381485         0.768752
 C        -1.939579        -0.018086         0.009856
 C        -2.587626         0.866150         1.040551
 C        -1.326736         1.851066         0.853457
 C        -1.107230         2.652758         2.177841
 O        -1.911104         1.754441         3.122639
 C        -2.097242         0.526969         2.447855
 C        -0.722963        -0.212672         2.169695
 H         1.260172        -0.642812         0.414923
 H        -2.005347         0.450399        -0.969098
 H        -2.289902        -1.036822        -0.133605
 H        -3.603270         1.278701         1.059086
 H        -1.157958         2.494733        -0.069604
 H        -0.097725         2.739182         2.632416
 H        -1.556933         3.633345         2.031026
 H        -2.738932        -0.032046         3.102221
 H         0.005227         0.077564         2.912810
 H        -0.718718        -1.262559         2.088435
