19
Iteration:  1308charge 0 multiplicity 1
 O         0.608791         0.306610         0.058770
 C        -0.587684         0.458626         0.741747
 C        -1.901892        -0.003073         0.011684
 C        -2.415468         1.013567         0.966103
 C        -1.126086         1.829769         0.931474
 C        -1.066025         2.576467         2.271927
 O        -1.948151         1.658815         3.172983
 C        -2.091779         0.514165         2.418107
 C        -0.864074        -0.307347         2.148264
 H         1.319396         0.206994         0.869289
 H        -1.823921         0.236294        -1.129583
 H        -2.417845        -0.900952         0.109672
 H        -3.338323         1.625524         0.746183
 H        -1.169818         2.260957        -0.098115
 H        -0.099496         2.659802         2.749404
 H        -1.434072         3.687486         2.156751
 H        -2.865441        -0.088465         2.976166
 H        -0.004746        -0.226874         2.908938
 H        -0.998320        -1.385013         2.138968
