19
Iteration:  2094
 O         0.684592         0.215248         0.037533
 C        -0.543427         0.441039         0.703082
 C        -1.814972        -0.076763         0.034273
 C        -2.552140         0.946555         1.022544
 C        -1.261519         1.871631         0.936389
 C        -1.142159         2.599385         2.219296
 O        -1.840556         1.742500         3.192887
 C        -2.144194         0.525478         2.472084
 C        -0.821168        -0.143150         2.141198
 H         0.921589        -0.633304         0.453297
 H        -1.853381         0.375489        -1.036857
 H        -2.048521        -1.215210         0.003633
 H        -3.479409         1.267510         0.561423
 H        -1.239524         2.340604        -0.054650
 H        -0.084117         2.622988         2.590259
 H        -1.522317         3.546958         2.289453
 H        -2.734155        -0.094839         3.158090
 H        -0.090689         0.229580         2.968809
 H        -0.913323        -1.219279         2.043989
