19
Iteration:  1768
 O         0.704777         0.326168         0.046716
 C        -0.546425         0.376598         0.676717
 C        -1.884906        -0.028426         0.065780
 C        -2.578293         0.977797         0.999012
 C        -1.199188         1.818348         0.853865
 C        -1.057257         2.568337         2.271526
 O        -1.864162         1.684299         3.145216
 C        -2.182109         0.511252         2.485319
 C        -0.839542        -0.226004         2.185112
 H         1.377067         0.286169         0.714706
 H        -1.899027         0.263056        -1.130140
 H        -2.274603        -1.077637         0.027190
 H        -3.492705         1.480617         0.769913
 H        -1.071079         2.434442        -0.064923
 H        -0.034498         2.797151         2.706692
 H        -1.430745         3.545696         2.234604
 H        -2.919598        -0.039731         3.079275
 H        -0.101517        -0.045237         3.014174
 H        -1.045841        -1.279543         2.136049
