19
Iteration:  1517
 O         0.647684         0.169135        -0.003949
 C        -0.544717         0.330818         0.712119
 C        -1.834414         0.004979        -0.028409
 C        -2.501734         1.018181         0.945341
 C        -1.133215         1.911676         0.940188
 C        -1.117765         2.608542         2.343133
 O        -1.944882         1.655428         3.226519
 C        -2.190732         0.506229         2.460679
 C        -0.801844        -0.191617         2.149058
 H         1.436177         0.526719         0.403660
 H        -1.857391         0.287296        -1.150221
 H        -2.192458        -0.969239        -0.010324
 H        -3.384867         1.613676         0.840513
 H        -1.076821         2.674650         0.137914
 H        -0.174429         2.768074         2.841498
 H        -1.646930         3.652237         2.218279
 H        -2.829452        -0.210798         2.883568
 H         0.111152        -0.040716         2.860894
 H        -1.035837        -1.260849         2.156774
