19
Iteration:  4487charge 0 multiplicity 1
 O         0.723710         0.436176         0.253364
 C        -0.606882         0.388162         0.718931
 C        -1.927871        -0.023865        -0.114331
 C        -2.547716         1.044645         0.947598
 C        -1.199196         1.771637         0.927207
 C        -0.959761         2.397488         2.275700
 O        -1.947846         1.769741         3.222825
 C        -2.150747         0.456656         2.465259
 C        -0.822143        -0.234063         2.056315
 H         0.764139        -0.095597        -0.528880
 H        -1.975594         0.419887        -1.143781
 H        -2.335839        -0.965091         0.095260
 H        -3.631403         1.374201         0.832254
 H        -1.042229         2.541912         0.109412
 H         0.163130         2.295265         2.458243
 H        -1.083938         3.389139         2.336275
 H        -2.835001        -0.238049         3.088513
 H        -0.045631         0.256197         2.670257
 H        -0.717048        -1.364983         2.163785
