19
Iteration:  1527
 O         0.705138         0.139133         0.036095
 C        -0.550459         0.313651         0.665842
 C        -1.924494        -0.001312        -0.038270
 C        -2.450234         1.065696         0.949810
 C        -1.176816         1.875956         0.991134
 C        -1.180027         2.561065         2.344665
 O        -1.924469         1.699113         3.257797
 C        -2.094476         0.539532         2.403486
 C        -0.813794        -0.182116         2.084517
 H         1.197619         0.595917         0.638288
 H        -1.733703         0.494719        -1.074185
 H        -2.268692        -0.987237        -0.032024
 H        -3.487077         1.236728         0.793101
 H        -1.130112         2.552097         0.114205
 H        -0.173078         2.685021         2.715517
 H        -1.758865         3.517735         2.429239
 H        -2.842208         0.051863         2.945596
 H        -0.010008         0.128872         2.875287
 H        -0.895737        -1.257192         2.086377
