19
Iteration:  4809
 O         0.704870         0.384696         0.197621
 C        -0.564338         0.436628         0.768820
 C        -1.880600        -0.002019        -0.000219
 C        -2.521741         0.962725         0.953591
 C        -1.273115         1.856730         0.910071
 C        -1.109148         2.544916         2.206200
 O        -1.699010         1.679688         3.178725
 C        -2.172747         0.537714         2.407133
 C        -0.917494        -0.320187         2.117752
 H         0.864565        -0.523142         0.201853
 H        -1.895893         0.209104        -1.009160
 H        -2.032565        -1.004386         0.128896
 H        -3.530525         1.377871         0.701468
 H        -1.078299         2.512384        -0.028057
 H        -0.067308         2.700668         2.585797
 H        -1.661987         3.526806         2.076780
 H        -3.008352         0.086648         3.051365
 H        -0.197502        -0.205039         2.989882
 H        -1.102820        -1.393453         1.934608
