19
Iteration:  3237charge 0 multiplicity 1
 O         0.653374         0.300453         0.010742
 C        -0.555515         0.367747         0.771285
 C        -1.798739        -0.138840         0.001560
 C        -2.530971         0.937780         0.999452
 C        -1.317596         1.798391         0.933107
 C        -1.048611         2.491711         2.264670
 O        -1.930858         1.800024         3.142526
 C        -2.130390         0.616356         2.435819
 C        -0.783712        -0.157737         2.209585
 H         1.305986         0.474874         0.612171
 H        -1.711554         0.297349        -1.010086
 H        -2.122015        -1.153564        -0.060453
 H        -3.586024         1.183247         0.740530
 H        -1.120568         2.398717        -0.115100
 H         0.020436         2.388971         2.640262
 H        -1.329380         3.550701         2.373498
 H        -2.852969         0.014895         3.036417
 H        -0.051567        -0.063570         2.956676
 H        -1.026239        -1.172404         1.996093
