19
Iteration:  3534charge 0 multiplicity 1
 O         0.635828         0.423944         0.073104
 C        -0.580873         0.455617         0.785477
 C        -1.830211        -0.119283         0.089142
 C        -2.543191         0.924159         0.909269
 C        -1.286732         1.811279         0.915353
 C        -1.023025         2.516148         2.230571
 O        -1.867391         1.776670         3.032480
 C        -2.164405         0.485571         2.436954
 C        -0.808484        -0.205938         2.290195
 H         0.893506        -0.560111         0.189343
 H        -1.715582         0.077078        -0.934338
 H        -2.082812        -1.169828         0.255241
 H        -3.490874         1.378165         0.779565
 H        -1.080029         2.469781        -0.077584
 H        -0.016797         2.229786         2.486659
 H        -1.094803         3.721453         2.259108
 H        -2.844150        -0.003359         3.111152
 H        -0.122008         0.091604         3.070233
 H        -0.798616        -1.334612         2.293238
