19
Iteration:  3999charge 0 multiplicity 1
 O         0.718139         0.196660         0.250969
 C        -0.561097         0.434476         0.664520
 C        -1.885955         0.018423        -0.042855
 C        -2.459738         0.951925         0.943553
 C        -1.199729         1.941571         0.903421
 C        -1.155121         2.586256         2.318855
 O        -1.768837         1.664883         3.182569
 C        -2.197973         0.479423         2.389616
 C        -0.847992        -0.274675         2.176188
 H         0.627783         0.194578        -0.712998
 H        -2.109260         0.551861        -0.952002
 H        -2.205273        -0.954842         0.018983
 H        -3.464423         1.364900         0.664943
 H        -1.202926         2.606185         0.050415
 H        -0.190866         2.983973         2.571554
 H        -1.820087         3.539688         2.396540
 H        -3.078442         0.200864         2.994929
 H        -0.071128        -0.056727         2.926772
 H        -0.866187        -1.363826         1.886221
