19
Iteration:  3790charge 0 multiplicity 1
 O         0.730894         0.216248         0.158182
 C        -0.546206         0.331544         0.724117
 C        -1.925940        -0.002297        -0.008140
 C        -2.507680         0.962935         0.992940
 C        -1.301160         1.845019         0.912752
 C        -0.978231         2.542283         2.265555
 O        -2.015045         1.800912         3.184829
 C        -2.136716         0.540217         2.440095
 C        -0.758802        -0.267488         2.061761
 H         1.189119         0.996791        -0.090765
 H        -1.754840         0.300767        -1.069507
 H        -2.262650        -0.955051         0.134646
 H        -3.542547         1.355209         0.841802
 H        -1.280033         2.357864         0.026052
 H        -0.052544         2.377157         2.666806
 H        -1.195164         3.675191         2.286447
 H        -2.793192        -0.113368         3.090556
 H         0.060651         0.128193         2.745843
 H        -0.865554        -1.319576         2.224082
