19
Iteration:  1450
 O         0.729625         0.254584         0.222712
 C        -0.591798         0.417738         0.668780
 C        -1.912930         0.026316        -0.000658
 C        -2.564657         0.970669         1.062499
 C        -1.250124         1.882629         0.914059
 C        -1.006390         2.459142         2.244549
 O        -1.868369         1.667381         3.179605
 C        -2.164300         0.475358         2.376566
 C        -0.816177        -0.130708         1.998285
 H         1.339692         0.113482         1.055975
 H        -2.040337         0.507336        -1.059698
 H        -2.351448        -0.948410        -0.097289
 H        -3.483036         1.518142         0.715404
 H        -1.220641         2.498171        -0.032569
 H        -0.037618         2.572603         2.712286
 H        -1.581816         3.502424         2.239622
 H        -2.741111        -0.128443         3.081001
 H         0.084444         0.117804         2.743447
 H        -0.966010        -1.213546         2.045904
