19
Iteration:   527
 O         0.694670         0.235774         0.096530
 C        -0.555170         0.407411         0.719308
 C        -1.772264        -0.028359        -0.083877
 C        -2.624292         0.992769         0.945737
 C        -1.272618         1.833622         0.952829
 C        -1.012109         2.553741         2.330884
 O        -1.820128         1.742212         3.271486
 C        -2.260995         0.591757         2.440273
 C        -0.866378        -0.273576         2.064276
 H         1.291997         0.034382         0.807911
 H        -1.798948         0.293708        -1.204121
 H        -2.035195        -1.080108        -0.191248
 H        -3.491529         1.456426         0.560020
 H        -1.167360         2.322299        -0.020040
 H         0.124040         2.612015         2.666007
 H        -1.364112         3.587633         2.370426
 H        -3.114622         0.120663         2.949972
 H        -0.093292        -0.057659         2.826009
 H        -0.875163        -1.355686         1.928242
