19
Iteration:   267charge 0 multiplicity 1
 O         0.681570         0.148180        -0.009357
 C        -0.545624         0.355957         0.689544
 C        -1.786367        -0.003902        -0.061518
 C        -2.423894         1.020589         0.988620
 C        -1.118207         1.781071         0.929485
 C        -1.089187         2.525970         2.336341
 O        -2.046277         1.800649         3.251681
 C        -2.238424         0.562258         2.523817
 C        -0.873282        -0.223766         2.126783
 H         1.304717         0.514255         0.528696
 H        -1.756340         0.457542        -1.101706
 H        -2.041012        -1.027180        -0.263248
 H        -3.254720         1.777765         0.874395
 H        -1.046191         2.378953        -0.032873
 H        -0.060164         2.631912         2.768151
 H        -1.374326         3.754466         2.217418
 H        -2.989257        -0.102819         3.026137
 H         0.023411         0.047016         2.734829
 H        -0.974482        -1.330120         1.986565
