19
Iteration:  3480charge 0 multiplicity 1
 O         0.751440         0.253280         0.158289
 C        -0.536502         0.387522         0.751471
 C        -1.920811        -0.011325         0.018576
 C        -2.580414         0.866880         1.046301
 C        -1.326870         1.852882         0.867323
 C        -1.110300         2.645202         2.158271
 O        -1.909762         1.745522         3.129182
 C        -2.091841         0.540391         2.439488
 C        -0.715566        -0.221143         2.175672
 H         1.198372        -0.600262         0.437602
 H        -1.991788         0.481787        -0.894639
 H        -2.234501        -1.015702        -0.176592
 H        -3.580873         1.228703         1.055929
 H        -1.157354         2.535274        -0.115899
 H        -0.120492         2.742035         2.606112
 H        -1.592678         3.717160         1.987911
 H        -2.750673        -0.054581         3.049849
 H         0.019041         0.073193         2.890766
 H        -0.762990        -1.302312         2.085969
