19
Iteration:  1488
 O         0.597246         0.241881        -0.003411
 C        -0.526306         0.327927         0.786066
 C        -1.781671         0.048980         0.072274
 C        -2.504949         0.995501         0.958551
 C        -1.231676         1.919844         0.951084
 C        -1.079549         2.520087         2.319212
 O        -1.941939         1.695687         3.120132
 C        -2.166025         0.500960         2.392587
 C        -0.794587        -0.192809         2.158784
 H         1.501884         0.199166         0.555487
 H        -1.614813         0.418584        -0.877260
 H        -2.265426        -0.983269        -0.065308
 H        -3.534882         1.333863         0.864188
 H        -1.249267         2.721348         0.217156
 H        -0.000935         2.425990         2.632645
 H        -1.236432         3.580265         2.350525
 H        -2.868699        -0.243715         2.831816
 H        -0.072160        -0.098490         2.904373
 H        -1.028789        -1.292396         2.061492
