19
Iteration:  2275charge 0 multiplicity 1
 O         0.671498         0.323252        -0.046214
 C        -0.510914         0.379379         0.753739
 C        -1.865791        -0.098248         0.097820
 C        -2.511722         0.962709         0.956264
 C        -1.230946         1.808673         0.895466
 C        -1.064651         2.504599         2.261364
 O        -1.883403         1.707584         3.181855
 C        -2.257912         0.561970         2.441415
 C        -0.792303        -0.140331         2.194318
 H         1.543947         0.381916         0.571669
 H        -1.970849         0.085739        -0.914870
 H        -2.322953        -1.011526         0.359503
 H        -3.551123         1.476303         0.710645
 H        -1.084595         2.297889        -0.166267
 H        -0.073269         2.396119         2.629369
 H        -1.380628         3.598675         2.227785
 H        -3.028899         0.039260         3.084093
 H        -0.178972         0.274897         2.942578
 H        -0.648825        -1.269410         2.185155
