19
Iteration:  4932
 O         0.771982         0.265298         0.238714
 C        -0.554540         0.388359         0.739765
 C        -1.938071        -0.110701         0.010770
 C        -2.563247         0.888127         0.982543
 C        -1.260329         1.866013         0.880929
 C        -1.046945         2.584588         2.233623
 O        -1.920531         1.796381         3.153637
 C        -2.111798         0.509953         2.430841
 C        -0.790050        -0.186531         2.112081
 H         0.768975         0.406114        -0.805663
 H        -2.013124         0.293511        -1.007136
 H        -2.145121        -1.136661         0.026830
 H        -3.526266         1.361036         0.969374
 H        -1.070253         2.513012        -0.008041
 H         0.052129         2.647232         2.588398
 H        -1.476627         3.624356         2.359967
 H        -2.826842        -0.089407         3.035702
 H        -0.018219        -0.095618         2.856055
 H        -1.080169        -1.279261         2.039709
