19
Iteration:  4277charge 0 multiplicity 1
 O         0.705553         0.100540         0.189300
 C        -0.573991         0.379603         0.737251
 C        -1.782007         0.088315        -0.069779
 C        -2.507056         1.025564         0.961539
 C        -1.280773         1.886785         0.975167
 C        -1.223550         2.669531         2.280451
 O        -1.823446         1.677316         3.249998
 C        -2.145700         0.434310         2.396843
 C        -0.791142        -0.236305         2.077842
 H         0.611222         0.290474        -0.840633
 H        -1.628250         0.606840        -0.955783
 H        -2.172427        -0.927728        -0.017940
 H        -3.464440         1.427374         0.768263
 H        -1.244544         2.479718        -0.068435
 H        -0.246143         2.787588         2.752161
 H        -1.594249         3.658362         2.300759
 H        -2.796576        -0.158115         3.017260
 H        -0.084470         0.246887         2.852300
 H        -0.734676        -1.331932         1.874302
