19
Iteration:  3553charge 0 multiplicity 1
 O         0.740892         0.377760         0.114507
 C        -0.535275         0.369137         0.705759
 C        -1.858119        -0.068419         0.004988
 C        -2.532452         0.911687         1.073555
 C        -1.237671         1.783635         0.830011
 C        -1.062534         2.519902         2.167435
 O        -1.905634         1.807880         3.178642
 C        -2.200028         0.563611         2.503287
 C        -0.824924        -0.185632         2.208546
 H         1.152862        -0.586303         0.035745
 H        -1.960465         0.323733        -1.044072
 H        -2.128720        -1.170668        -0.129453
 H        -3.556736         1.205217         0.918208
 H        -1.280067         2.300333        -0.121482
 H        -0.006650         2.628201         2.448633
 H        -1.559108         3.470435         2.134817
 H        -2.945390        -0.064786         3.032374
 H        -0.011075         0.054230         2.918189
 H        -0.949678        -1.336961         2.209221
