19
Iteration:  4654
 O         0.712476         0.386702         0.349424
 C        -0.612087         0.492532         0.719061
 C        -1.872867        -0.099077        -0.095163
 C        -2.607420         0.969640         1.020226
 C        -1.283612         1.888095         0.924740
 C        -0.936880         2.414325         2.306760
 O        -1.788882         1.742434         3.149370
 C        -2.192147         0.474225         2.384194
 C        -0.873578        -0.237111         2.017635
 H         0.778282        -0.021928        -0.636972
 H        -1.951306         0.450612        -1.001823
 H        -2.185040        -1.036083        -0.228973
 H        -3.685885         1.234433         0.915263
 H        -1.331957         2.644225         0.139894
 H         0.105774         2.141799         2.552087
 H        -1.058018         3.399899         2.451351
 H        -2.956628         0.156737         3.019371
 H        -0.089685        -0.063505         2.768550
 H        -0.752414        -1.289600         1.734575
