19
Iteration:  2080charge 0 multiplicity 1
 O         0.668426         0.294951         0.077702
 C        -0.582288         0.357418         0.732946
 C        -1.892405        -0.054743        -0.000150
 C        -2.473759         0.936502         1.016497
 C        -1.191893         1.789938         0.839109
 C        -1.158012         2.599521         2.272374
 O        -1.873354         1.787141         3.186199
 C        -2.136444         0.565458         2.480872
 C        -0.758964        -0.232674         2.152596
 H         1.241170        -0.565940         0.191820
 H        -1.954773         0.316278        -1.003037
 H        -2.156585        -1.236068         0.012563
 H        -3.464716         1.457985         1.191227
 H        -1.152456         2.600607         0.033194
 H        -0.159873         2.979550         2.620627
 H        -1.781890         3.466062         2.001281
 H        -3.015677         0.075870         2.925218
 H         0.134941        -0.118100         2.804550
 H        -0.979327        -1.313494         2.081097
