19
Iteration:   821
 O         0.679919         0.281707         0.152524
 C        -0.600692         0.370272         0.726782
 C        -1.824720        -0.039263         0.013028
 C        -2.551987         1.066306         1.043417
 C        -1.232557         1.921412         0.951023
 C        -1.020135         2.547686         2.288081
 O        -1.859174         1.713190         3.109308
 C        -2.218439         0.514688         2.365288
 C        -0.811851        -0.317366         2.067041
 H         1.238326        -0.287299         0.554473
 H        -1.785868         0.400820        -1.047420
 H        -2.314810        -1.031748        -0.033397
 H        -3.516811         1.481167         0.840049
 H        -1.203567         2.637299         0.090037
 H         0.061769         2.659821         2.670589
 H        -1.324594         3.547685         2.385814
 H        -2.958546         0.045159         2.960988
 H        -0.114959        -0.203331         2.927429
 H        -0.983856        -1.421913         2.014528
