19
Iteration:  4021charge 0 multiplicity 1
 O         0.745315         0.198593         0.292787
 C        -0.582861         0.385223         0.752692
 C        -1.879367         0.062968         0.007712
 C        -2.541563         1.078456         1.032086
 C        -1.252723         1.832398         0.899669
 C        -1.166498         2.551985         2.193124
 O        -1.830344         1.679027         3.159610
 C        -2.078523         0.438526         2.401609
 C        -0.811160        -0.274030         2.013733
 H         0.569661         0.893721        -0.522777
 H        -1.700905         0.503746        -0.983534
 H        -2.243349        -0.887811         0.022526
 H        -3.418766         1.809250         1.068800
 H        -0.885431         2.261932        -0.025104
 H        -0.196630         2.848293         2.547069
 H        -1.708971         3.591110         2.194932
 H        -2.872153        -0.059092         2.996826
 H        -0.199622        -0.043379         2.874370
 H        -1.119041        -1.369019         2.000554
