19
Iteration:  4399
 O         0.713607         0.214181         0.217589
 C        -0.554252         0.431540         0.700576
 C        -1.895101         0.068546         0.005369
 C        -2.514747         1.048203         1.032823
 C        -1.180006         1.793074         0.954275
 C        -1.153211         2.543256         2.238674
 O        -1.903201         1.658307         3.181851
 C        -2.155392         0.504083         2.415621
 C        -0.744656        -0.260340         2.062516
 H         0.727204         0.530367        -0.625382
 H        -2.003011         0.499695        -1.004580
 H        -2.210143        -0.985123        -0.011843
 H        -3.477847         1.594758         0.931102
 H        -1.156279         2.571289         0.073864
 H        -0.049373         2.714857         2.641053
 H        -1.660020         3.474234         2.130754
 H        -3.010663        -0.080815         2.899287
 H         0.110537         0.068563         2.735944
 H        -0.760120        -1.387219         1.942491
