19
Iteration:     4
 O         0.667185         0.190661         0.141503
 C        -0.573989         0.373270         0.709354
 C        -1.850232         0.078694        -0.048829
 C        -2.518439         1.049142         0.991040
 C        -1.186846         1.852965         0.928115
 C        -1.029818         2.518834         2.332657
 O        -1.892762         1.674857         3.171177
 C        -2.178624         0.521042         2.404415
 C        -0.882812        -0.235075         2.083145
 H         1.392567         0.243506         0.884355
 H        -1.812209         0.582623        -1.094875
 H        -2.267274        -0.935849        -0.107096
 H        -3.409887         1.580979         0.743182
 H        -1.043085         2.568472         0.127385
 H         0.033084         2.490587         2.755301
 H        -1.382964         3.503113         2.311094
 H        -3.036453        -0.009106         2.859707
 H        -0.110130         0.057719         2.846743
 H        -1.003397        -1.334361         1.882714
