19
Iteration:   213
 O         0.700872         0.172189         0.257149
 C        -0.598934         0.479989         0.696501
 C        -1.835831        -0.005520        -0.075720
 C        -2.516191         0.922771         0.937636
 C        -1.204885         1.911265         0.901650
 C        -1.025289         2.475184         2.284783
 O        -1.738167         1.653621         3.201770
 C        -2.235857         0.561542         2.390502
 C        -0.993950        -0.172304         2.145968
 H         1.185905         0.917754         0.235368
 H        -2.042285         0.490810        -1.066085
 H        -1.998622        -1.078780        -0.020453
 H        -3.572054         1.307659         0.757041
 H        -1.114542         2.665918         0.063826
 H         0.094518         2.478867         2.448126
 H        -1.483527         3.478703         2.163561
 H        -3.031468        -0.004336         2.893972
 H        -0.214450         0.217590         2.823063
 H        -1.185725        -1.263696         2.001758
