19
Iteration:  4663charge 0 multiplicity 1
 O         0.733323         0.343541         0.342121
 C        -0.650669         0.474140         0.681143
 C        -1.850499        -0.025814        -0.117972
 C        -2.524193         0.940332         0.999580
 C        -1.334897         1.911286         0.920205
 C        -0.996990         2.444142         2.280900
 O        -1.738178         1.703845         3.218316
 C        -2.185303         0.493066         2.401001
 C        -0.905469        -0.211505         2.061473
 H         0.800238        -0.058368        -0.642958
 H        -2.005803         0.476522        -1.094321
 H        -2.068016        -1.057569        -0.172061
 H        -3.593788         1.115829         0.760287
 H        -1.268554         2.528270         0.076198
 H         0.098570         2.378340         2.335346
 H        -1.179792         3.594876         2.424979
 H        -2.879129        -0.081908         2.981643
 H        -0.168849        -0.142838         2.843813
 H        -1.170184        -1.304831         1.831089
