19
Iteration:  3087charge 0 multiplicity 1
 O         0.726701         0.365899         0.150058
 C        -0.540329         0.447086         0.751728
 C        -1.866315        -0.087177         0.078445
 C        -2.564842         0.946183         0.959191
 C        -1.342798         1.804358         0.827721
 C        -1.007900         2.534626         2.253433
 O        -1.892743         1.741855         3.149889
 C        -2.206066         0.558084         2.387196
 C        -0.730470        -0.198717         2.175757
 H         0.777120        -0.588125        -0.133124
 H        -2.015505         0.264082        -0.985340
 H        -2.072890        -1.205732         0.275422
 H        -3.612344         1.286147         0.866778
 H        -1.332195         2.364348        -0.069120
 H         0.001291         2.399121         2.683206
 H        -1.266143         3.618962         2.181480
 H        -2.892105        -0.024163         3.067631
 H        -0.182650        -0.046124         3.147012
 H        -0.537005        -1.325754         1.976580
