19
Iteration:   381
 O         0.684279         0.227207         0.135772
 C        -0.609629         0.391994         0.758742
 C        -1.862962        -0.013461        -0.055224
 C        -2.510827         1.061113         0.929716
 C        -1.174567         1.899472         0.929100
 C        -1.045156         2.590305         2.299208
 O        -1.831193         1.642015         3.177976
 C        -2.216614         0.521996         2.344330
 C        -0.893273        -0.257859         2.149058
 H         1.366880        -0.006827         0.723763
 H        -1.787582         0.250159        -1.134027
 H        -2.242946        -1.077575         0.039217
 H        -3.484728         1.561590         0.821257
 H        -0.940790         2.533918         0.071596
 H         0.027396         2.673608         2.778656
 H        -1.492915         3.630517         2.510233
 H        -3.036316         0.026922         2.950191
 H        -0.181301         0.042961         2.940014
 H        -1.016647        -1.359737         2.026470
