19
Iteration:  2358charge 0 multiplicity 1
 O         0.605188         0.275920         0.064825
 C        -0.603522         0.377036         0.756907
 C        -1.857016        -0.052120         0.120748
 C        -2.503507         1.031722         0.937043
 C        -1.198382         1.881981         0.926762
 C        -1.216863         2.626170         2.195091
 O        -1.805532         1.695644         3.164268
 C        -2.064543         0.492405         2.392947
 C        -0.783319        -0.271955         2.156564
 H         1.356186         0.303787         0.719814
 H        -2.036316        -0.055824        -0.991685
 H        -2.244840        -1.129660         0.294556
 H        -3.500979         1.318692         0.821762
 H        -0.928304         2.389972         0.063248
 H        -0.248368         3.020356         2.617607
 H        -1.773468         3.543347         1.877615
 H        -2.794292        -0.131329         2.929207
 H         0.046443         0.045949         2.896379
 H        -0.840165        -1.363506         2.280045
