19
Iteration:  2883charge 0 multiplicity 1
 O         0.706450         0.135788         0.003055
 C        -0.531795         0.377781         0.730680
 C        -1.837995         0.033176         0.034203
 C        -2.494765         0.958582         1.003293
 C        -1.206785         1.846823         0.900549
 C        -1.231249         2.662156         2.225863
 O        -1.887950         1.779567         3.223438
 C        -2.138273         0.424936         2.504917
 C        -0.798729        -0.216779         2.136571
 H         1.536771         0.547585         0.518088
 H        -1.839030         0.422052        -0.947673
 H        -2.363599        -0.934203        -0.052318
 H        -3.505647         1.414620         0.680133
 H        -1.246708         2.414951        -0.033153
 H        -0.199365         2.797383         2.771805
 H        -1.726655         3.552017         2.003879
 H        -2.959360        -0.225050         3.067640
 H         0.111318         0.059776         2.814997
 H        -0.922739        -1.232222         2.130453
