19
Iteration:  1430
 O         0.676740         0.284979         0.179670
 C        -0.574203         0.441473         0.781971
 C        -1.896687         0.053157        -0.057488
 C        -2.546749         0.994109         0.951391
 C        -1.284250         1.906339         0.888168
 C        -1.122989         2.558516         2.237708
 O        -1.750458         1.704749         3.166392
 C        -2.157772         0.407580         2.390602
 C        -0.826179        -0.328218         2.147505
 H         1.219460         0.067024         0.874566
 H        -1.799613         0.375964        -1.156913
 H        -2.168283        -0.932152         0.076538
 H        -3.560202         1.407523         0.937079
 H        -1.166649         2.726444         0.139808
 H        -0.085139         2.377067         2.458457
 H        -1.356437         3.711349         2.361029
 H        -3.013336         0.052750         2.896208
 H        -0.011275        -0.130480         2.922500
 H        -0.867745        -1.379002         1.884793
