19
Iteration:  1036charge 0 multiplicity 1
 O         0.701944         0.284525         0.111100
 C        -0.591979         0.411616         0.729561
 C        -1.833127        -0.003817        -0.012926
 C        -2.585748         1.059063         0.948384
 C        -1.245022         1.773025         0.938711
 C        -1.004643         2.434092         2.379808
 O        -1.916612         1.776684         3.200029
 C        -2.168228         0.494292         2.378034
 C        -0.817844        -0.168031         2.076452
 H         0.994417        -0.541153         0.067053
 H        -1.777920         0.268376        -1.107695
 H        -2.001428        -1.011200         0.092833
 H        -3.539485         1.519665         0.792985
 H        -1.003207         2.441734         0.133367
 H         0.116004         2.542440         2.643753
 H        -1.414234         3.577128         2.287320
 H        -2.862146        -0.074821         3.057193
 H        -0.069096         0.017470         2.859993
 H        -0.948011        -1.207967         1.951995
