19
Iteration:  4068charge 0 multiplicity 1
 O         0.668985         0.248804         0.198858
 C        -0.589741         0.450417         0.712309
 C        -1.814733        -0.031278         0.027453
 C        -2.476890         1.020156         0.990649
 C        -1.260564         1.857893         0.872048
 C        -1.022919         2.398589         2.285616
 O        -1.895065         1.731739         3.146514
 C        -2.211554         0.515254         2.415859
 C        -0.808640        -0.182782         2.122621
 H         0.814036         0.991882        -0.318904
 H        -1.851708         0.435085        -0.928049
 H        -2.125974        -1.105279         0.056975
 H        -3.515400         1.242162         0.696929
 H        -1.390514         2.545886        -0.078706
 H        -0.030762         2.144496         2.626098
 H        -1.019766         3.541742         2.495514
 H        -2.920678        -0.204228         2.817314
 H        -0.096103         0.178084         2.863131
 H        -0.920540        -1.291475         2.141627
