19
Iteration:  2243
 O         0.572378         0.207771         0.007581
 C        -0.540982         0.402889         0.778901
 C        -1.771949        -0.002401         0.015422
 C        -2.477053         0.934007         1.032049
 C        -1.257330         1.825594         0.943451
 C        -1.096604         2.577626         2.259479
 O        -1.945908         1.771842         3.120943
 C        -2.112164         0.508460         2.447207
 C        -0.769513        -0.192817         2.119590
 H         1.279688         0.322486         0.614410
 H        -1.902459         0.201941        -0.975453
 H        -2.142572        -0.931964         0.193870
 H        -3.601506         1.204636         0.868823
 H        -1.088925         2.400241        -0.058523
 H        -0.205732         2.533586         2.760801
 H        -1.368446         3.702499         2.246907
 H        -2.766019         0.034866         3.203075
 H         0.030198         0.024675         2.801964
 H        -0.851070        -1.299054         2.137835
