19
Iteration:   658
 O         0.725585         0.294909         0.182308
 C        -0.542929         0.361536         0.730091
 C        -1.836484         0.069210        -0.030114
 C        -2.590481         1.035833         0.950580
 C        -1.294656         1.836771         0.921884
 C        -1.025963         2.470616         2.238548
 O        -1.777561         1.740655         3.252459
 C        -2.182853         0.501837         2.439818
 C        -0.962917        -0.269743         2.030656
 H         1.417982        -0.047938         0.750358
 H        -1.898357         0.478790        -1.057306
 H        -2.106614        -1.005432        -0.090563
 H        -3.517307         1.397773         0.653187
 H        -1.093105         2.355138         0.009636
 H         0.042055         2.507405         2.347977
 H        -1.449102         3.621575         2.319514
 H        -2.945958         0.024825         2.953846
 H        -0.159142        -0.108758         2.777704
 H        -1.117643        -1.353975         2.017486
