19
Iteration:  1675charge 0 multiplicity 1
 O         0.739023         0.229797         0.160749
 C        -0.602847         0.358446         0.728818
 C        -1.933170         0.055108         0.055145
 C        -2.462548         1.028352         1.008963
 C        -1.173498         1.844151         0.938796
 C        -1.184364         2.536789         2.310071
 O        -1.908053         1.759181         3.135646
 C        -2.080074         0.475345         2.348295
 C        -0.758969        -0.245544         2.121108
 H         0.562566         0.061213        -0.877619
 H        -1.937059         0.435479        -0.883295
 H        -2.215292        -1.009108         0.062183
 H        -3.539877         1.388727         0.898563
 H        -1.067014         2.508198         0.062268
 H        -0.195952         2.741653         2.663457
 H        -1.644176         3.586656         2.333924
 H        -2.768374        -0.218300         2.914472
 H        -0.112307        -0.058862         2.970870
 H        -0.921224        -1.381916         1.995922
