19
Iteration:  2174charge 0 multiplicity 1
 O         0.594009         0.309567         0.050403
 C        -0.545604         0.418600         0.811713
 C        -1.799527        -0.028727         0.054309
 C        -2.503614         0.949978         0.995743
 C        -1.262167         1.877624         0.882002
 C        -1.105577         2.592098         2.189860
 O        -1.795231         1.720610         3.135419
 C        -2.113987         0.515925         2.457093
 C        -0.905428        -0.263289         2.192167
 H         1.436406         0.139600         0.495427
 H        -1.768264         0.143738        -1.054168
 H        -2.008975        -1.102452         0.134475
 H        -3.544335         1.137176         0.804421
 H        -1.179335         2.301686        -0.081900
 H        -0.069536         2.715589         2.412857
 H        -1.594576         3.578827         2.315226
 H        -2.908971        -0.064822         2.971899
 H        -0.105973        -0.186790         2.925880
 H        -1.102350        -1.376711         2.117524
