19
Iteration:  1615
 O         0.681878         0.384429         0.170143
 C        -0.610629         0.398137         0.745591
 C        -1.958894         0.009440         0.021114
 C        -2.526659         1.039720         1.029908
 C        -1.118487         1.857767         0.928917
 C        -1.053367         2.487858         2.241846
 O        -1.923708         1.667432         3.099148
 C        -2.165526         0.502419         2.393157
 C        -0.752248        -0.245858         2.127642
 H         1.181974        -0.491650         0.218807
 H        -2.035619         0.364575        -1.074074
 H        -2.081226        -1.020071         0.227018
 H        -3.485482         1.418762         0.906434
 H        -1.205895         2.474885         0.044450
 H         0.002551         2.261036         2.431602
 H        -1.334729         3.496379         2.259727
 H        -2.908221        -0.069137         2.861082
 H        -0.064475        -0.049510         3.001335
 H        -0.867120        -1.292007         1.968911
