19
Iteration:  1290charge 0 multiplicity 1
 O         0.694115         0.285387         0.128171
 C        -0.550572         0.318970         0.738838
 C        -1.890496         0.030370         0.010795
 C        -2.545215         1.081958         1.012677
 C        -1.234929         1.862732         0.910138
 C        -1.100822         2.570524         2.218723
 O        -1.827331         1.693168         3.193961
 C        -2.202553         0.490226         2.407590
 C        -0.827620        -0.309072         2.093064
 H         1.558954         0.182198         0.738562
 H        -1.916792         0.491554        -1.053056
 H        -2.105907        -1.086134        -0.031895
 H        -3.570634         1.488839         0.977326
 H        -0.865746         2.529618         0.074038
 H        -0.001773         2.762802         2.554353
 H        -1.606823         3.483464         2.200039
 H        -3.030253        -0.023888         2.839651
 H        -0.143682        -0.123250         2.906472
 H        -0.856834        -1.403333         1.949136
