19
Iteration:  4962charge 0 multiplicity 1
 O         0.696348         0.177325         0.269429
 C        -0.559680         0.441615         0.759162
 C        -1.914853         0.003006        -0.043164
 C        -2.554940         0.918809         1.006518
 C        -1.311597         1.857644         0.827356
 C        -1.176761         2.651287         2.107460
 O        -1.685779         1.684752         3.163645
 C        -2.137086         0.446892         2.432603
 C        -0.824866        -0.199607         2.170718
 H         1.280254         0.809068         0.588817
 H        -2.043328         0.483305        -0.963417
 H        -2.020431        -1.064997         0.034921
 H        -3.465085         1.528879         0.934269
 H        -1.133686         2.367668        -0.207797
 H        -0.188265         3.028491         2.267351
 H        -1.936667         3.491517         2.267158
 H        -2.921367        -0.132897         3.073735
 H         0.012365         0.043120         2.884979
 H        -0.885440        -1.284442         2.076688
