19
Iteration:  3219
 O         0.620388         0.186841         0.068169
 C        -0.534802         0.457183         0.724113
 C        -1.833637         0.018816         0.056253
 C        -2.526885         0.928325         1.045298
 C        -1.215306         1.869292         0.907747
 C        -1.097320         2.562997         2.236705
 O        -2.007795         1.809404         3.074393
 C        -2.109823         0.437007         2.464949
 C        -0.737078        -0.259798         2.176288
 H         1.359484         0.575657         0.407462
 H        -1.813613         0.347861        -0.983080
 H        -2.058015        -1.117001         0.159150
 H        -3.535504         1.392957         0.916349
 H        -1.135372         2.463667        -0.004946
 H        -0.032487         2.559399         2.592427
 H        -1.331203         3.604942         2.190645
 H        -2.808288        -0.182331         3.086537
 H         0.092451         0.148483         2.814529
 H        -0.785390        -1.392622         2.210042
