19
Iteration:  1123charge 0 multiplicity 1
 O         0.652539         0.267103         0.136571
 C        -0.592494         0.435758         0.797058
 C        -1.852531         0.065820         0.014428
 C        -2.497743         1.047212         0.993009
 C        -1.234904         1.836607         0.971534
 C        -1.115516         2.547129         2.224817
 O        -1.798577         1.628497         3.136212
 C        -2.163345         0.519336         2.432118
 C        -0.888272        -0.286644         2.055207
 H         1.317818        -0.062594         0.779083
 H        -1.695310         0.459151        -1.077328
 H        -2.028419        -0.998730        -0.061509
 H        -3.377105         1.633569         0.734291
 H        -1.044703         2.384876         0.029760
 H        -0.050014         2.843568         2.474572
 H        -1.640270         3.399089         2.298543
 H        -2.996919         0.026375         3.014933
 H        -0.055885        -0.171851         2.766771
 H        -0.853378        -1.318908         1.830784
