19
Iteration:  4359charge 0 multiplicity 1
 O         0.751743         0.341472         0.230756
 C        -0.625719         0.499263         0.726998
 C        -1.817004        -0.019410        -0.031498
 C        -2.524194         0.953811         1.019052
 C        -1.321440         1.834690         0.922325
 C        -0.917298         2.377960         2.216077
 O        -1.874315         1.689416         3.187486
 C        -2.262196         0.552923         2.445787
 C        -0.849349        -0.189881         2.087251
 H         0.785170         0.565739        -0.812878
 H        -2.038552         0.316128        -1.083620
 H        -1.974681        -1.088215        -0.068762
 H        -3.507111         1.395660         0.649847
 H        -1.314958         2.450288         0.106622
 H        -0.004059         2.060637         2.569395
 H        -1.165419         3.501946         2.358293
 H        -2.940819        -0.026335         3.137302
 H        -0.129964         0.000731         2.816477
 H        -0.835204        -1.272226         2.025913
