19
Iteration:  4839
 O         0.738600         0.171054         0.324413
 C        -0.577306         0.406689         0.727709
 C        -1.923939         0.087805        -0.099204
 C        -2.507188         0.963172         1.015390
 C        -1.273533         1.895348         0.924128
 C        -1.199913         2.586587         2.205307
 O        -1.726283         1.709176         3.134691
 C        -2.128076         0.464252         2.468173
 C        -0.813389        -0.269068         2.109510
 H         0.639171         0.187926        -0.679208
 H        -1.981598         0.509335        -1.132481
 H        -2.142349        -1.019624        -0.217596
 H        -3.508296         1.424930         0.882904
 H        -1.196988         2.538430         0.071771
 H        -0.224963         2.934201         2.559832
 H        -1.788041         3.557811         1.968685
 H        -2.901348         0.038276         3.057011
 H        -0.069410        -0.010917         2.900556
 H        -0.828091        -1.359179         2.055291
