19
Iteration:  2015
 O         0.698488         0.339872         0.185443
 C        -0.624077         0.443420         0.718212
 C        -1.836987        -0.121312        -0.037997
 C        -2.622442         0.850795         0.986416
 C        -1.381658         1.860799         0.871651
 C        -0.996966         2.486536         2.239923
 O        -1.784656         1.799897         3.163174
 C        -2.160429         0.542643         2.514671
 C        -0.800742        -0.100999         2.093563
 H         1.056130        -0.666116         0.337356
 H        -1.738360         0.197115        -1.064847
 H        -2.175864        -1.299594        -0.064578
 H        -3.560523         1.423554         0.747947
 H        -1.299589         2.499889        -0.067761
 H         0.035053         2.337843         2.681641
 H        -1.237513         3.457247         2.294344
 H        -2.856956         0.020263         3.174940
 H         0.058436        -0.067978         2.816907
 H        -0.719958        -1.160473         1.942475
