19
Iteration:  3879charge 0 multiplicity 1
 O         0.674442         0.241781         0.156467
 C        -0.570346         0.350599         0.732892
 C        -1.909647         0.078349        -0.061237
 C        -2.529521         0.974271         1.035499
 C        -1.197523         1.818277         0.891670
 C        -1.143487         2.559184         2.208253
 O        -1.839769         1.748144         3.228078
 C        -2.181454         0.492602         2.435865
 C        -0.762276        -0.264943         2.070473
 H         1.315254         0.071011         0.922254
 H        -1.816505         0.584908        -1.020605
 H        -2.189748        -0.965518        -0.252144
 H        -3.429086         1.558590         0.901070
 H        -0.925085         2.476035         0.078389
 H        -0.134735         2.733241         2.525512
 H        -1.615401         3.622255         2.142101
 H        -2.955722        -0.119542         2.937886
 H        -0.070218        -0.049944         2.889426
 H        -0.899124        -1.344350         1.974410
