19
Iteration:   468
 O         0.722095         0.244770         0.103100
 C        -0.566054         0.362213         0.690139
 C        -1.938708        -0.053612        -0.040277
 C        -2.475437         1.080215         0.954255
 C        -1.122276         1.862195         0.896823
 C        -1.070003         2.527446         2.334972
 O        -1.910681         1.694251         3.220453
 C        -2.122729         0.545329         2.411942
 C        -0.891430        -0.252456         2.099200
 H         1.358210         0.476255         0.911659
 H        -2.166813         0.199459        -1.053603
 H        -2.330701        -1.023710         0.298127
 H        -3.469473         1.563743         0.728506
 H        -0.918071         2.558884         0.072200
 H        -0.093338         2.737072         2.711126
 H        -1.679118         3.519339         2.156203
 H        -3.019659        -0.002864         2.812763
 H        -0.163912        -0.073855         2.916007
 H        -1.150670        -1.330230         2.112587
