19
Iteration:  2736
 O         0.679280         0.324979         0.158533
 C        -0.574072         0.350687         0.758256
 C        -1.870777        -0.082435         0.000954
 C        -2.501731         0.931382         0.959634
 C        -1.252648         1.872016         0.894231
 C        -1.149336         2.668169         2.192583
 O        -1.903314         1.755277         3.161058
 C        -2.064501         0.461639         2.512816
 C        -0.749532        -0.216468         2.154897
 H         0.668951        -0.492817        -0.228271
 H        -1.882086         0.406820        -1.022370
 H        -2.260931        -1.093070         0.071754
 H        -3.367715         1.487619         0.870410
 H        -1.271341         2.407336        -0.113378
 H        -0.129631         2.775901         2.611840
 H        -1.608278         3.627304         2.156575
 H        -2.702223        -0.145635         3.107309
 H         0.151173        -0.242145         2.719864
 H        -0.955237        -1.320230         2.049539
