19
Iteration:  4088
 O         0.757301         0.279007         0.192702
 C        -0.558502         0.418131         0.739213
 C        -1.968649        -0.005529        -0.010612
 C        -2.569826         1.020957         0.961030
 C        -1.175779         1.830697         0.904133
 C        -0.985015         2.466756         2.279542
 O        -2.002746         1.712236         3.134064
 C        -2.158364         0.479970         2.408026
 C        -0.752534        -0.189645         2.172704
 H         0.699947         0.507875        -0.712119
 H        -2.002563         0.234011        -1.058936
 H        -2.300180        -1.019427         0.152860
 H        -3.588089         1.584973         1.035524
 H        -0.927154         2.560864         0.062724
 H         0.076511         2.448064         2.632385
 H        -1.311326         3.614515         2.419570
 H        -2.815394        -0.311868         2.913987
 H        -0.006968         0.095944         2.899504
 H        -0.769886        -1.324068         1.994293
