19
Iteration:  1703charge 0 multiplicity 1
 O         0.706262         0.188544         0.164976
 C        -0.616751         0.425541         0.707839
 C        -1.874947        -0.013754         0.006887
 C        -2.517938         1.021803         0.954041
 C        -1.222497         1.839261         0.880161
 C        -1.076323         2.536241         2.267122
 O        -1.855610         1.732426         3.238463
 C        -2.178703         0.447403         2.431703
 C        -0.816761        -0.206657         2.129592
 H         0.876065         1.075715        -0.423090
 H        -1.805976         0.393550        -1.161552
 H        -1.987236        -1.104374         0.174020
 H        -3.471588         1.453146         0.689451
 H        -1.223992         2.459434        -0.030613
 H         0.082798         2.677888         2.588779
 H        -1.568650         3.495133         2.319412
 H        -2.892900        -0.150148         3.017853
 H        -0.127081         0.132738         2.911653
 H        -0.740280        -1.266361         1.950667
