19
Iteration:  3830
 O         0.669274         0.275104         0.181483
 C        -0.577057         0.398737         0.798816
 C        -1.798007         0.004147         0.072933
 C        -2.528727         1.032112         0.933298
 C        -1.253778         1.858948         0.893307
 C        -1.040409         2.583958         2.246045
 O        -1.891186         1.693627         3.191467
 C        -2.144999         0.487320         2.361576
 C        -0.791665        -0.253378         2.144384
 H         0.402617        -0.298401        -0.627005
 H        -1.824352         0.191833        -1.047131
 H        -2.234709        -1.033910         0.006734
 H        -3.564331         1.458558         0.824680
 H        -1.119724         2.508414        -0.056344
 H         0.080305         2.537502         2.499154
 H        -1.495993         3.587771         2.329329
 H        -3.011710        -0.057453         2.742843
 H        -0.143535         0.144287         2.967139
 H        -0.812674        -1.368865         2.011102
