19
Iteration:  4619
 O         0.745130         0.326351         0.145312
 C        -0.520321         0.392489         0.718538
 C        -1.965019        -0.033575        -0.011275
 C        -2.502855         1.016605         0.981324
 C        -1.167923         1.827409         0.884506
 C        -1.046381         2.433157         2.359598
 O        -1.936972         1.695221         3.168990
 C        -2.182597         0.528048         2.406870
 C        -0.805152        -0.249268         2.131962
 H         0.548505         0.860123        -0.734253
 H        -1.917055         0.463487        -0.993819
 H        -2.395011        -0.961152        -0.081687
 H        -3.425588         1.657096         1.052487
 H        -1.010830         2.615488         0.189728
 H        -0.076256         2.374212         2.841156
 H        -1.274867         3.533720         2.276989
 H        -3.036873        -0.050470         2.800340
 H        -0.129151         0.070267         2.914459
 H        -0.821671        -1.384573         2.063854
