19
Iteration:   822
 O         0.680161         0.277688         0.144463
 C        -0.586587         0.379773         0.729760
 C        -1.831666        -0.034516         0.014068
 C        -2.564345         1.058485         1.042717
 C        -1.224940         1.912066         0.942842
 C        -1.019643         2.540371         2.297431
 O        -1.858231         1.716486         3.112336
 C        -2.222058         0.518793         2.371872
 C        -0.811100        -0.312406         2.065469
 H         1.270341        -0.295070         0.597817
 H        -1.766066         0.376837        -1.012914
 H        -2.331252        -1.036850        -0.057713
 H        -3.552593         1.489066         0.797731
 H        -1.188341         2.676956         0.095463
 H         0.032631         2.677481         2.660666
 H        -1.333029         3.587511         2.373891
 H        -2.947621         0.019585         2.946865
 H        -0.129024        -0.223051         2.923007
 H        -0.977282        -1.419436         2.004959
