19
Iteration:  1248charge 0 multiplicity 1
 O         0.700997         0.159269         0.167981
 C        -0.623957         0.464969         0.730142
 C        -1.813796         0.036247        -0.039251
 C        -2.552757         1.053102         1.015284
 C        -1.336192         1.926339         0.904885
 C        -1.119172         2.520745         2.260996
 O        -1.829057         1.729338         3.199331
 C        -2.102486         0.495729         2.410911
 C        -0.782573        -0.313708         2.030633
 H         1.145322        -0.002564         1.053659
 H        -1.839267         0.553597        -0.930179
 H        -2.170523        -1.020499        -0.134135
 H        -3.601147         1.285707         0.886233
 H        -1.055642         2.567470         0.054413
 H        -0.051845         2.519255         2.545182
 H        -1.553135         3.528609         2.303378
 H        -2.850622         0.004162         2.979969
 H        -0.057015         0.089902         2.685794
 H        -0.840975        -1.437024         1.925308
