19
Iteration:  1297
 O         0.660210         0.310803         0.106548
 C        -0.566895         0.318081         0.789312
 C        -1.894567         0.012020        -0.021086
 C        -2.474046         1.087132         1.027231
 C        -1.174636         1.844519         0.896812
 C        -1.071286         2.618391         2.185541
 O        -1.884000         1.679431         3.221942
 C        -2.198954         0.477005         2.388478
 C        -0.797773        -0.331222         2.100492
 H         1.390379         0.217681         0.767938
 H        -1.901383         0.359898        -1.135162
 H        -2.193048        -0.994312         0.106526
 H        -3.460692         1.640794         0.992377
 H        -1.131349         2.458375        -0.043188
 H        -0.058886         2.629377         2.561319
 H        -1.653745         3.611381         2.370975
 H        -3.018217        -0.149550         2.852116
 H        -0.055514        -0.058698         2.920420
 H        -1.093337        -1.362729         1.958852
