19
Iteration:  3650charge 0 multiplicity 1
 O         0.747675         0.229196         0.082333
 C        -0.549856         0.412115         0.745624
 C        -1.936858         0.013380         0.117363
 C        -2.584536         0.947970         1.033733
 C        -1.256127         1.805411         0.894881
 C        -1.070416         2.494544         2.207144
 O        -1.955719         1.778563         3.056584
 C        -2.116702         0.508056         2.443109
 C        -0.726745        -0.185141         2.159127
 H         1.364345         0.932602         0.434241
 H        -1.908583         0.265937        -0.961313
 H        -2.257393        -1.066265         0.302445
 H        -3.602541         1.360369         0.999026
 H        -1.154907         2.365213         0.029517
 H         0.013267         2.422923         2.641769
 H        -1.365740         3.505303         2.127226
 H        -2.900177        -0.026166         3.045072
 H         0.038921        -0.083280         2.918604
 H        -0.901217        -1.249978         2.033977
