19
Iteration:  2360
 O         0.610523         0.280756         0.063995
 C        -0.581874         0.366292         0.770964
 C        -1.866556        -0.065228         0.114141
 C        -2.503541         1.045697         0.957261
 C        -1.200498         1.862372         0.919213
 C        -1.213628         2.627332         2.195276
 O        -1.821094         1.700539         3.150332
 C        -2.062728         0.497082         2.390378
 C        -0.765903        -0.268080         2.149685
 H         1.276076         0.320447         0.663056
 H        -2.044145        -0.057579        -0.949519
 H        -2.292153        -1.150945         0.292202
 H        -3.563297         1.408569         0.867115
 H        -0.883313         2.466067         0.046273
 H        -0.236652         3.050760         2.658415
 H        -1.783406         3.511693         1.959156
 H        -2.827582        -0.120756         2.935903
 H        -0.041403        -0.003816         2.897656
 H        -0.792282        -1.401518         2.243327
