19
Iteration:  2631charge 0 multiplicity 1
 O         0.654801         0.243030         0.115813
 C        -0.571210         0.397340         0.715115
 C        -1.804165         0.000112        -0.041226
 C        -2.519969         0.859580         0.988907
 C        -1.348847         1.818916         0.950528
 C        -1.131800         2.621744         2.232389
 O        -1.793957         1.727255         3.149830
 C        -2.099117         0.523767         2.496908
 C        -0.795599        -0.140488         2.101835
 H         1.193914        -0.234688         0.771423
 H        -1.815586         0.338133        -1.052827
 H        -2.073796        -1.027657        -0.139607
 H        -3.615777         1.082380         0.902629
 H        -1.421489         2.396274         0.074150
 H        -0.085135         2.827426         2.505728
 H        -1.698285         3.654637         2.220042
 H        -2.834340        -0.071629         3.176211
 H        -0.132512         0.259629         2.958379
 H        -0.933365        -1.211570         2.008036
