19
Iteration:  2416charge 0 multiplicity 1
 O         0.598519         0.170264         0.110895
 C        -0.602282         0.508122         0.786412
 C        -1.812397        -0.052641        -0.042018
 C        -2.555239         0.859017         0.962682
 C        -1.341923         1.854031         0.877611
 C        -1.028638         2.540896         2.216688
 O        -1.905449         1.763926         3.156406
 C        -2.087257         0.471148         2.464607
 C        -0.696225        -0.078004         2.173404
 H         1.290644         0.509995         0.685028
 H        -1.980169         0.451698        -0.951386
 H        -2.072668        -1.159089         0.065225
 H        -3.592635         1.221354         0.621973
 H        -1.476624         2.538528         0.028654
 H        -0.042374         2.209998         2.689437
 H        -1.130618         3.532658         2.460454
 H        -2.925843        -0.015171         2.996401
 H         0.092837         0.257126         2.744472
 H        -0.664424        -1.218559         2.118000
