19
Iteration:  2272
 O         0.677395         0.315134        -0.071282
 C        -0.505846         0.419360         0.800827
 C        -1.855762        -0.118488         0.099197
 C        -2.503786         0.980037         0.954065
 C        -1.241582         1.808440         0.864814
 C        -1.073476         2.517736         2.255387
 O        -1.879921         1.705966         3.188345
 C        -2.269371         0.552690         2.437407
 C        -0.798069        -0.147525         2.211788
 H         1.417036         0.345664         0.468350
 H        -2.017631         0.131573        -1.010223
 H        -2.397935        -1.147137         0.242472
 H        -3.444846         1.403755         0.624687
 H        -1.128320         2.324724        -0.088179
 H        -0.026845         2.389577         2.763573
 H        -1.314256         3.541947         2.303495
 H        -3.010977         0.109304         3.119867
 H        -0.130934         0.189334         2.999987
 H        -0.627632        -1.263528         2.225265
