19
Iteration:  3862
 O         0.744948         0.226985         0.177410
 C        -0.599761         0.451649         0.676614
 C        -1.847128         0.024729        -0.048844
 C        -2.509340         1.035009         0.995621
 C        -1.160753         1.821061         0.902999
 C        -1.123296         2.550879         2.205911
 O        -1.879007         1.659441         3.221841
 C        -2.098723         0.504611         2.502069
 C        -0.889852        -0.187437         2.063433
 H         1.013736        -0.596572         0.527423
 H        -2.095956         0.568519        -0.972693
 H        -2.248331        -1.034710         0.135957
 H        -3.527938         1.473310         0.931979
 H        -1.403536         2.421822        -0.053762
 H        -0.130843         2.990957         2.604142
 H        -1.734697         3.411819         2.114072
 H        -2.894264        -0.026030         3.024021
 H        -0.029264         0.010661         2.730047
 H        -0.944920        -1.300030         2.009709
