19
Iteration:  4039
 O         0.751821         0.234762         0.238054
 C        -0.589604         0.423641         0.710973
 C        -1.935170         0.031186        -0.067141
 C        -2.511335         0.956497         0.998773
 C        -1.196762         1.840128         0.920285
 C        -1.082404         2.567173         2.238982
 O        -1.847569         1.718449         3.167634
 C        -2.172289         0.538459         2.467090
 C        -0.838742        -0.305538         2.102434
 H         1.153304         1.071561        -0.239063
 H        -2.075487         0.393152        -1.147873
 H        -2.238192        -1.068363        -0.174633
 H        -3.521336         1.222502         0.821059
 H        -1.299854         2.513473         0.081998
 H        -0.042348         2.573651         2.753433
 H        -1.463174         3.539422         2.157960
 H        -2.950034        -0.081892         2.930906
 H         0.012219        -0.162429         2.850690
 H        -1.017956        -1.366470         2.037300
