19
Iteration:  2357
 O         0.603177         0.273260         0.064968
 C        -0.610799         0.382133         0.751395
 C        -1.855708        -0.049228         0.120812
 C        -2.501599         1.023851         0.929618
 C        -1.197981         1.888099         0.930420
 C        -1.216875         2.626310         2.195989
 O        -1.798615         1.693969         3.170280
 C        -2.067577         0.490868         2.395430
 C        -0.789173        -0.272594         2.160347
 H         1.391330         0.296308         0.745152
 H        -2.022459        -0.041188        -1.005936
 H        -2.212683        -1.101997         0.300867
 H        -3.490359         1.286901         0.799801
 H        -0.946641         2.370067         0.048635
 H        -0.261498         2.997955         2.592781
 H        -1.777567         3.557457         1.854452
 H        -2.781928        -0.129989         2.925947
 H         0.074054         0.068455         2.886833
 H        -0.864598        -1.343409         2.286788
