19
Iteration:  1340
 O         0.692671         0.127821         0.012779
 C        -0.526233         0.447255         0.665780
 C        -1.811760         0.045400        -0.011133
 C        -2.531765         0.998744         0.949341
 C        -1.306383         1.860477         0.924261
 C        -1.002454         2.506379         2.341419
 O        -1.988322         1.694219         3.241439
 C        -2.188643         0.528077         2.455911
 C        -0.788244        -0.162907         2.154295
 H         1.417581         0.227910         0.519173
 H        -1.712390         0.530864        -1.015582
 H        -2.111363        -0.958101         0.006579
 H        -3.486907         1.556589         0.721382
 H        -1.368902         2.439647        -0.006302
 H        -0.068392         2.188137         2.683567
 H        -1.167447         3.683204         2.367125
 H        -3.027651        -0.094843         2.904277
 H        -0.096725         0.367429         2.902898
 H        -0.683104        -1.272232         2.100390
