19
Iteration:   561
 O         0.639250         0.177938         0.063227
 C        -0.538241         0.432647         0.745365
 C        -1.960005         0.060265        -0.009638
 C        -2.423068         1.109154         1.017990
 C        -1.165639         1.856153         0.884643
 C        -1.060526         2.493205         2.309451
 O        -2.023264         1.693368         3.103826
 C        -2.212963         0.517680         2.382992
 C        -0.666485        -0.289506         2.209902
 H         1.350026         0.212827         0.577069
 H        -1.936705         0.560135        -0.984570
 H        -2.411403        -0.943563         0.099829
 H        -3.238843         1.755970         0.930069
 H        -1.110470         2.341923        -0.084954
 H        -0.045886         2.490856         2.888070
 H        -1.523822         3.357467         2.530438
 H        -2.952227        -0.052752         2.801044
 H         0.076804         0.064180         2.929587
 H        -0.642020        -1.378201         2.155622
