19
Iteration:  4660
 O         0.726596         0.355638         0.341545
 C        -0.646400         0.484273         0.698055
 C        -1.851883        -0.058500        -0.114465
 C        -2.544539         0.954901         1.017387
 C        -1.311717         1.910601         0.936558
 C        -0.992018         2.409341         2.292899
 O        -1.744929         1.729394         3.193893
 C        -2.185916         0.489879         2.374661
 C        -0.896942        -0.213159         2.044491
 H         0.793198        -0.027238        -0.559874
 H        -2.000232         0.511981        -1.096485
 H        -2.182700        -1.230524        -0.250695
 H        -3.605459         1.068189         0.814319
 H        -1.315204         2.590499         0.081482
 H         0.132909         2.311980         2.372296
 H        -1.127570         3.637376         2.469752
 H        -2.959505        -0.014908         3.049899
 H        -0.152316        -0.124641         2.834989
 H        -1.026187        -1.296255         1.748016
