19
Iteration:  1937charge 0 multiplicity 1
 O         0.698007         0.185477         0.090947
 C        -0.532666         0.511292         0.737264
 C        -1.860348         0.042780         0.022655
 C        -2.558769         0.938439         0.986033
 C        -1.338369         1.869187         0.879055
 C        -1.135234         2.565025         2.191324
 O        -1.831709         1.697181         3.165387
 C        -2.115419         0.516368         2.451313
 C        -0.746796        -0.201387         2.192593
 H         1.003548        -0.710925         0.476816
 H        -1.839121         0.436292        -0.950506
 H        -1.947953        -1.091907         0.136013
 H        -3.499801         1.479307         0.896351
 H        -1.397875         2.547233         0.043554
 H        -0.085715         2.657013         2.572248
 H        -1.669321         3.427614         2.259848
 H        -2.926309        -0.010216         2.976368
 H        -0.032187         0.016173         2.945521
 H        -0.906884        -1.262021         2.027681
