19
Iteration:  4287
 O         0.726819         0.081563         0.140753
 C        -0.494423         0.402993         0.717257
 C        -1.797097         0.091016        -0.088939
 C        -2.497165         0.952884         0.950321
 C        -1.285257         1.907259         0.975058
 C        -1.207555         2.653736         2.314168
 O        -1.812495         1.667644         3.215295
 C        -2.187443         0.474486         2.461415
 C        -0.839901        -0.208387         2.142191
 H         0.706770         0.548163        -0.817951
 H        -1.970705         0.499496        -1.057497
 H        -2.084752        -0.985166        -0.259093
 H        -3.412754         1.444783         0.719400
 H        -1.241092         2.710087         0.104259
 H        -0.115103         2.891462         2.504153
 H        -1.848346         3.438745         2.466593
 H        -3.013224         0.050323         2.984962
 H         0.039289        -0.029304         2.865066
 H        -0.870946        -1.346366         2.157337
