19
Iteration:  4253
 O         0.752414         0.213364         0.237296
 C        -0.574255         0.451450         0.691690
 C        -1.944580         0.055956        -0.036050
 C        -2.461773         0.991450         0.991153
 C        -1.183928         1.876916         0.930016
 C        -1.137373         2.524175         2.276754
 O        -1.917313         1.639046         3.112040
 C        -2.118522         0.473402         2.446756
 C        -0.788977        -0.195931         2.139794
 H         0.654997         0.079010        -0.791114
 H        -2.203531         0.534171        -0.961194
 H        -2.275335        -0.982445         0.202858
 H        -3.421481         1.542245         0.888794
 H        -1.100509         2.703566         0.094584
 H        -0.133261         2.692789         2.800908
 H        -1.546793         3.463872         2.344106
 H        -2.889975        -0.054121         2.989690
 H         0.104157         0.027492         2.771842
 H        -0.926461        -1.271842         1.806956
