19
Iteration:  1437
 O         0.717604         0.263741         0.206244
 C        -0.588557         0.459284         0.753678
 C        -1.932624         0.055834        -0.036379
 C        -2.563226         1.040323         0.967281
 C        -1.305827         1.869124         0.844362
 C        -1.065893         2.557530         2.270284
 O        -1.816238         1.633977         3.136876
 C        -2.095764         0.485248         2.416900
 C        -0.819530        -0.278359         2.114472
 H         1.239533         0.076506         0.953306
 H        -1.940979         0.520704        -1.046099
 H        -2.076969        -1.079363        -0.012328
 H        -3.645577         1.343869         1.062082
 H        -1.136952         2.450373        -0.076011
 H         0.045873         2.489224         2.428297
 H        -1.427882         3.572755         2.490608
 H        -2.951513        -0.111551         2.881535
 H        -0.088001        -0.015806         2.950593
 H        -0.877025        -1.368962         1.919113
