19
Iteration:   449charge 0 multiplicity 1
 O         0.636703         0.151829        -0.028800
 C        -0.483154         0.429121         0.804424
 C        -1.781497         0.033330         0.012978
 C        -2.526177         1.010666         0.960563
 C        -1.167365         1.856505         0.941614
 C        -1.077648         2.514087         2.305366
 O        -1.911200         1.687617         3.204373
 C        -2.285751         0.558094         2.409984
 C        -0.875930        -0.189525         2.167120
 H         1.480074         0.347902         0.561849
 H        -1.544129         0.508265        -1.025823
 H        -2.028266        -1.014955        -0.130574
 H        -3.486519         1.513246         0.681907
 H        -1.043451         2.418745         0.001289
 H         0.056360         2.512315         2.669236
 H        -1.400688         3.550686         2.291965
 H        -3.098729        -0.095990         2.907454
 H        -0.156183         0.061744         2.978034
 H        -0.918608        -1.276823         2.040653
