19
Iteration:  2181
 O         0.578331         0.252571         0.081338
 C        -0.632176         0.464719         0.811271
 C        -1.756143        -0.044942         0.002527
 C        -2.547620         0.961677         1.009324
 C        -1.260095         1.891047         0.886036
 C        -1.121415         2.590311         2.212238
 O        -1.749958         1.727029         3.147247
 C        -2.144478         0.512330         2.411066
 C        -0.818544        -0.256811         2.176687
 H         1.310346         0.215867         0.594727
 H        -1.742422         0.174020        -1.145970
 H        -1.990978        -1.177851         0.293896
 H        -3.613562         1.041688         0.864033
 H        -1.115804         2.504641        -0.007915
 H        -0.000179         2.770080         2.511757
 H        -1.600661         3.543092         2.104229
 H        -2.873902        -0.151643         2.855279
 H        -0.154303        -0.183610         3.131937
 H        -1.003127        -1.316383         2.039531
