19
Iteration:  1721charge 0 multiplicity 1
 O         0.758178         0.192376         0.143412
 C        -0.574536         0.478633         0.772979
 C        -1.865693        -0.008924        -0.025883
 C        -2.574304         0.920842         1.003586
 C        -1.291897         1.833086         0.919106
 C        -1.029647         2.458360         2.225350
 O        -1.840096         1.679782         3.145257
 C        -2.205456         0.582723         2.468222
 C        -0.830348        -0.154309         2.102829
 H         1.255824         1.139283         0.042825
 H        -2.116319         0.486003        -0.941597
 H        -2.122744        -1.070083        -0.174029
 H        -3.616086         1.236788         1.049761
 H        -1.276729         2.518547         0.082512
 H         0.016369         2.473589         2.454645
 H        -1.261283         3.538336         2.316800
 H        -2.937983         0.011373         2.966107
 H        -0.028659         0.106250         2.865212
 H        -1.031748        -1.220349         2.137483
