19
Iteration:  3488charge 0 multiplicity 1
 O         0.827028         0.280841         0.124373
 C        -0.537675         0.375464         0.785944
 C        -1.984367        -0.052400        -0.023317
 C        -2.594445         0.902132         1.027912
 C        -1.292861         1.824785         0.853406
 C        -1.108083         2.612526         2.231823
 O        -1.904599         1.799705         3.101728
 C        -2.109983         0.473328         2.481809
 C        -0.749250        -0.164977         2.150747
 H         1.226631        -0.561411         0.336122
 H        -1.986871         0.318868        -1.068587
 H        -2.372249        -1.107606         0.063030
 H        -3.580827         1.356757         0.963819
 H        -1.224842         2.404506        -0.122070
 H        -0.076865         2.705767         2.576465
 H        -1.623438         3.679149         2.249311
 H        -2.783146        -0.031535         3.221222
 H        -0.015577         0.138427         2.934468
 H        -0.694180        -1.328062         2.136999
