19
Iteration:   524
 O         0.696816         0.232933         0.103048
 C        -0.567526         0.406711         0.724134
 C        -1.760852        -0.020556        -0.106661
 C        -2.587481         0.972817         0.947210
 C        -1.285373         1.824110         0.936064
 C        -1.033452         2.545161         2.342182
 O        -1.790568         1.735472         3.263311
 C        -2.264375         0.595728         2.467035
 C        -0.873614        -0.256389         2.077168
 H         1.251830         0.034264         0.843085
 H        -1.821031         0.346442        -1.188771
 H        -2.052102        -1.040824        -0.274536
 H        -3.508906         1.467895         0.528483
 H        -1.276098         2.368358        -0.030453
 H        -0.021355         2.537057         2.559383
 H        -1.283915         3.709739         2.373930
 H        -3.241916         0.195643         2.973514
 H        -0.089111        -0.074424         2.862272
 H        -0.879467        -1.341828         1.861635
