19
Iteration:  1187charge 0 multiplicity 1
 O         0.631681         0.187837        -0.014599
 C        -0.593015         0.480236         0.812498
 C        -1.850533        -0.035467        -0.003778
 C        -2.509808         1.003717         0.935271
 C        -1.184095         1.912805         0.955333
 C        -0.984459         2.520080         2.370168
 O        -1.966239         1.703257         3.137689
 C        -2.148294         0.494597         2.378361
 C        -0.815855        -0.201619         2.176640
 H         1.358865         0.552520         0.374321
 H        -1.787663         0.373653        -1.101913
 H        -2.209735        -1.106160        -0.005619
 H        -3.497054         1.413570         0.949969
 H        -1.035515         2.523577         0.083744
 H         0.072131         2.403222         2.759307
 H        -1.349067         3.583796         2.551212
 H        -2.917541        -0.247707         2.754707
 H        -0.218609        -0.042328         3.143856
 H        -0.930767        -1.296862         2.032036
