19
Iteration:   224charge 0 multiplicity 1
 O         0.637182         0.142213         0.260226
 C        -0.611055         0.450225         0.721133
 C        -1.816385         0.010472        -0.031031
 C        -2.491101         1.093673         0.933818
 C        -1.263174         1.901313         0.833597
 C        -1.058082         2.483393         2.252910
 O        -1.786833         1.634095         3.199576
 C        -2.231727         0.529272         2.394247
 C        -0.852526        -0.217925         2.144674
 H         1.206975         0.931245         0.260065
 H        -1.690976         0.279801        -1.103501
 H        -2.162719        -1.024607        -0.003546
 H        -3.455309         1.523901         0.557577
 H        -1.252011         2.582812        -0.058200
 H         0.015857         2.525789         2.605749
 H        -1.393063         3.528934         2.501341
 H        -3.050800         0.083070         2.960713
 H        -0.109496        -0.035807         2.956898
 H        -0.722600        -1.322334         1.990028
