19
Iteration:    24
 O         0.820085         0.252047         0.306548
 C        -0.617265         0.375522         0.612425
 C        -1.998513         0.118112        -0.212971
 C        -2.569676         1.003878         1.012437
 C        -1.219873         1.788563         0.916687
 C        -0.980196         2.463695         2.256609
 O        -1.850864         1.739515         3.246603
 C        -2.193638         0.523542         2.457007
 C        -0.878116        -0.248498         2.027942
 H         1.204273         0.099707         1.231518
 H        -2.076534         0.771851        -1.150231
 H        -2.273140        -0.901822        -0.446425
 H        -3.511650         1.439967         0.953113
 H        -1.155338         2.391328         0.030016
 H         0.114991         2.399639         2.550385
 H        -1.304625         3.448619         2.250361
 H        -2.838437        -0.090880         3.091967
 H        -0.058380         0.136686         2.668330
 H        -1.014648        -1.350708         2.141869
