19
Iteration:  3853charge 0 multiplicity 1
 O         0.765683         0.221928         0.180195
 C        -0.552400         0.405557         0.682846
 C        -1.917436         0.021817        -0.024423
 C        -2.527009         0.974589         0.982360
 C        -1.243568         1.919095         0.910844
 C        -1.150835         2.586804         2.298167
 O        -1.823341         1.687544         3.143764
 C        -2.137543         0.518690         2.458583
 C        -0.826809        -0.226047         2.092713
 H         0.865583        -0.706222         0.200670
 H        -1.953825         0.160040        -1.125083
 H        -2.225992        -1.012907         0.058938
 H        -3.498266         1.482243         0.807839
 H        -1.080532         2.670576         0.131726
 H        -0.084446         2.731796         2.644496
 H        -1.733419         3.535728         2.323780
 H        -2.902442        -0.034934         3.042174
 H        -0.084995         0.049358         2.908982
 H        -1.000108        -1.321777         2.021730
