19
Iteration:  2281charge 0 multiplicity 1
 O         0.675222         0.329074         0.019499
 C        -0.550252         0.334963         0.686637
 C        -1.881051        -0.061755         0.106229
 C        -2.549955         0.969755         0.977052
 C        -1.205847         1.806855         0.920136
 C        -1.067010         2.495403         2.252322
 O        -1.898198         1.729592         3.165492
 C        -2.209864         0.553707         2.438034
 C        -0.780687        -0.147531         2.153362
 H         1.400031         0.422146         0.577396
 H        -1.898502         0.064175        -1.052460
 H        -2.153784        -1.131546         0.507425
 H        -3.470459         1.420957         0.901990
 H        -1.050019         2.318719         0.031259
 H         0.082655         2.497938         2.473126
 H        -1.447078         3.484933         2.183455
 H        -2.953883        -0.077283         2.895644
 H        -0.129370         0.385718         2.920079
 H        -0.775767        -1.231701         2.202176
