19
Iteration:  3067charge 0 multiplicity 1
 O         0.704944         0.333896         0.088022
 C        -0.614330         0.342221         0.757072
 C        -1.819448        -0.101175        -0.006430
 C        -2.470063         0.931373         0.992114
 C        -1.150257         1.869915         0.922353
 C        -1.157855         2.562654         2.244367
 O        -1.926562         1.782942         3.138080
 C        -2.126266         0.530480         2.534702
 C        -0.821069        -0.183875         2.128338
 H         0.662811        -0.420332        -0.387747
 H        -1.920200         0.278125        -1.017433
 H        -2.091473        -1.176633         0.039210
 H        -3.538249         1.274306         0.866269
 H        -1.158289         2.460798         0.127765
 H        -0.154738         2.597640         2.547566
 H        -1.610055         3.664255         2.094057
 H        -2.815946        -0.175519         3.146926
 H         0.102385         0.040307         2.797399
 H        -0.911347        -1.314612         2.311829
