19
Iteration:  3417charge 0 multiplicity 1
 O         0.659607         0.272103         0.132045
 C        -0.542646         0.445752         0.747437
 C        -1.905825        -0.113210         0.044823
 C        -2.548500         1.007006         1.000768
 C        -1.185755         1.823172         0.868325
 C        -1.120995         2.582088         2.135937
 O        -1.897249         1.712122         3.122712
 C        -2.122199         0.495669         2.496736
 C        -0.761394        -0.204857         2.146144
 H         1.342311         0.576424         0.749928
 H        -1.895927         0.092115        -1.049788
 H        -2.277552        -1.158926         0.199480
 H        -3.491762         1.560717         0.949075
 H        -1.124132         2.442868        -0.057176
 H        -0.126708         2.682961         2.617668
 H        -1.616405         3.482666         2.104179
 H        -2.815589        -0.067983         3.079624
 H        -0.061554         0.007634         2.971558
 H        -0.779464        -1.286407         2.083487
