19
Iteration:  3643
 O         0.713237         0.257351         0.064172
 C        -0.509850         0.375725         0.781762
 C        -1.951730        -0.027285         0.089070
 C        -2.495723         0.969551         1.024932
 C        -1.252183         1.806015         0.859583
 C        -1.058878         2.556126         2.195774
 O        -1.985054         1.771978         3.093297
 C        -2.119762         0.509691         2.468192
 C        -0.749406        -0.221160         2.146512
 H         1.405970         0.837030         0.634581
 H        -2.111180         0.326912        -0.918522
 H        -2.240458        -1.125599         0.054044
 H        -3.500070         1.286533         1.002433
 H        -1.164792         2.458014        -0.142626
 H        -0.032635         2.461593         2.490157
 H        -1.417902         3.605661         2.311804
 H        -2.679931        -0.083040         3.161422
 H        -0.057538        -0.009518         2.970928
 H        -1.098989        -1.343577         2.130794
