19
Iteration:  4904
 O         0.641720         0.372209        -0.003908
 C        -0.545905         0.379946         0.788717
 C        -1.802718        -0.069889         0.104057
 C        -2.519715         0.955120         0.983012
 C        -1.182637         1.829874         0.907567
 C        -0.989973         2.400285         2.234489
 O        -2.008336         1.791411         3.120565
 C        -2.230485         0.508885         2.444889
 C        -0.776716        -0.120125         2.201887
 H         0.973546        -0.649779        -0.033799
 H        -1.690498         0.210692        -1.003605
 H        -2.132171        -1.193369        -0.069034
 H        -3.439696         1.560583         0.949168
 H        -1.028621         2.558880         0.151661
 H         0.004158         2.351254         2.623488
 H        -1.330290         3.395703         2.298537
 H        -2.968920        -0.052835         2.963531
 H        -0.050096         0.301120         2.942300
 H        -0.795256        -1.192199         2.343377
