19
Iteration:    25
 O         0.817687         0.252255         0.315365
 C        -0.612447         0.392102         0.618522
 C        -2.005562         0.124040        -0.215825
 C        -2.575010         1.000263         1.008704
 C        -1.221089         1.790369         0.916854
 C        -0.991726         2.454174         2.256133
 O        -1.842576         1.743167         3.236502
 C        -2.182176         0.520331         2.456514
 C        -0.876807        -0.255820         2.039760
 H         1.193780         0.093644         1.171175
 H        -2.100552         0.779805        -1.197769
 H        -2.266898        -0.920010        -0.403858
 H        -3.520787         1.442335         0.942623
 H        -1.113199         2.417535         0.042590
 H         0.134635         2.367679         2.523138
 H        -1.295678         3.421060         2.237221
 H        -2.852353        -0.092817         3.094645
 H        -0.057350         0.156962         2.696977
 H        -1.038755        -1.390773         2.109089
