19
Iteration:  4887
 O         0.588475         0.250342        -0.013775
 C        -0.544486         0.446678         0.755734
 C        -1.862445        -0.055339         0.051444
 C        -2.508629         0.974871         0.970645
 C        -1.187703         1.816825         0.920356
 C        -1.038587         2.519657         2.327811
 O        -1.997421         1.740638         3.110402
 C        -2.131143         0.546691         2.358778
 C        -0.761581        -0.164184         2.254511
 H         1.454622         0.093046         0.582105
 H        -1.873898         0.203028        -0.980151
 H        -2.165262        -1.026967         0.216164
 H        -3.545449         1.216803         0.692312
 H        -1.037685         2.351484        -0.106215
 H         0.016346         2.325626         2.739012
 H        -1.233309         3.687688         2.460647
 H        -2.848214        -0.121536         2.979793
 H        -0.003630         0.182485         3.007464
 H        -0.711212        -1.277586         2.194369
