19
Iteration:  3028
 O         0.730994         0.198745         0.125184
 C        -0.524505         0.384816         0.732983
 C        -1.867171        -0.040963         0.024439
 C        -2.488484         1.004191         1.002635
 C        -1.301513         1.917557         0.890015
 C        -1.229482         2.633244         2.237730
 O        -1.860129         1.680333         3.131795
 C        -2.105304         0.507762         2.460469
 C        -0.761225        -0.185647         2.189163
 H         0.747428        -0.687735        -0.443401
 H        -1.899524         0.292363        -1.057118
 H        -2.232291        -1.089756         0.039389
 H        -3.527581         1.258599         0.833939
 H        -1.138900         2.622495        -0.076765
 H        -0.230870         2.781372         2.803951
 H        -1.683161         3.564850         2.275233
 H        -2.710557         0.026773         3.169493
 H        -0.067889         0.273142         2.830014
 H        -0.748970        -1.249496         2.079032
