19
Iteration:  4783
 O         0.735451         0.388423         0.097487
 C        -0.565749         0.348240         0.713839
 C        -1.952951        -0.018411         0.008939
 C        -2.531272         0.980197         1.028317
 C        -1.227212         1.805530         0.864954
 C        -0.951528         2.490577         2.261352
 O        -1.926580         1.715070         3.188604
 C        -2.187467         0.545033         2.422995
 C        -0.854952        -0.242546         2.093396
 H         1.310857         0.252612         0.786865
 H        -1.881270         0.342963        -1.096220
 H        -2.080016        -1.165364         0.151413
 H        -3.468671         1.529759         0.882894
 H        -1.098432         2.325204        -0.014829
 H        -0.003667         2.303305         2.767450
 H        -1.300273         3.620510         2.284936
 H        -2.881950        -0.001853         2.964246
 H        -0.137535         0.074881         2.835162
 H        -1.045369        -1.329795         2.141394
