19
Iteration:  2173charge 0 multiplicity 1
 O         0.602334         0.316697         0.046496
 C        -0.530463         0.410902         0.810187
 C        -1.807242        -0.025232         0.067316
 C        -2.500363         0.946593         0.990493
 C        -1.264513         1.873457         0.879895
 C        -1.108671         2.597237         2.185731
 O        -1.802739         1.719792         3.135271
 C        -2.113292         0.515213         2.463360
 C        -0.914979        -0.266810         2.190759
 H         1.387964         0.142640         0.472228
 H        -1.775817         0.175953        -1.080870
 H        -2.029896        -1.155165         0.118099
 H        -3.507140         1.183760         0.805209
 H        -1.184896         2.274732        -0.068042
 H        -0.038780         2.709198         2.420402
 H        -1.570268         3.539416         2.339873
 H        -2.911940        -0.019976         3.008003
 H        -0.069534        -0.162697         2.924016
 H        -1.115440        -1.372929         2.109260
