19
Iteration:   673charge 0 multiplicity 1
 O         0.695553         0.266873         0.150889
 C        -0.601122         0.490785         0.772735
 C        -1.855479         0.023179        -0.059840
 C        -2.540713         0.952753         1.006015
 C        -1.253045         1.898757         0.895803
 C        -1.002913         2.536353         2.303962
 O        -1.816665         1.659536         3.085382
 C        -2.198038         0.568026         2.408789
 C        -0.865399        -0.291459         2.131158
 H         1.114669        -0.294185         0.971118
 H        -1.771303         0.574670        -0.960881
 H        -2.128681        -1.086783        -0.076879
 H        -3.599211         1.447656         0.952438
 H        -1.262578         2.640317         0.032310
 H         0.049809         2.372103         2.574484
 H        -1.268638         3.524717         2.373453
 H        -2.936721         0.026014         3.079587
 H        -0.178245        -0.344213         2.965397
 H        -1.173729        -1.311776         1.810577
