19
Iteration:  2378
 O         0.717051         0.253756         0.008670
 C        -0.541770         0.435457         0.750348
 C        -1.992382        -0.072418         0.105212
 C        -2.458582         0.964478         1.030229
 C        -1.176530         1.819728         0.892339
 C        -1.172325         2.593209         2.246040
 O        -1.930427         1.742275         3.135205
 C        -2.183381         0.530947         2.446709
 C        -0.718956        -0.242107         2.171113
 H         1.474267         0.436349         0.463627
 H        -1.898802         0.208323        -1.003528
 H        -2.234259        -1.127326         0.101999
 H        -3.356551         1.513077         0.942194
 H        -1.259454         2.203855        -0.117683
 H        -0.160746         2.658780         2.562492
 H        -1.594632         3.674003         2.069221
 H        -2.890761        -0.060474         2.998422
 H         0.188223         0.018022         2.901077
 H        -0.824670        -1.304566         2.085396
