19
Iteration:   374
 O         0.608185         0.258410         0.167714
 C        -0.540647         0.384815         0.833764
 C        -1.861575        -0.013530         0.000204
 C        -2.507986         1.057184         0.896103
 C        -1.201469         1.897222         0.906470
 C        -1.066008         2.569826         2.300892
 O        -1.799681         1.634564         3.133499
 C        -2.200207         0.568351         2.359204
 C        -0.904866        -0.272369         2.124360
 H         1.297440        -0.029619         0.680921
 H        -1.649948         0.571449        -0.990988
 H        -2.206451        -1.025145        -0.086254
 H        -3.530768         1.477803         0.727205
 H        -0.823149         2.449950         0.010847
 H        -0.055701         2.516343         2.687192
 H        -1.436467         3.527876         2.357118
 H        -2.883732        -0.067133         3.019509
 H        -0.135868        -0.188254         2.931289
 H        -1.017315        -1.310197         1.802266
