19
Iteration:  4775charge 0 multiplicity 1
 O         0.669644         0.321227         0.117134
 C        -0.614645         0.406271         0.745797
 C        -1.927066         0.024838        -0.008085
 C        -2.520468         1.005798         0.981232
 C        -1.237006         1.767364         0.941851
 C        -0.993265         2.406203         2.257887
 O        -1.963501         1.764840         3.165814
 C        -2.122816         0.555464         2.389491
 C        -0.758431        -0.240474         2.097730
 H         1.340271         0.514797         0.759754
 H        -1.936787         0.358589        -1.004729
 H        -2.216916        -0.953967         0.108037
 H        -3.568044         1.278538         0.774841
 H        -1.068987         2.413925         0.056430
 H        -0.004808         2.166409         2.712927
 H        -1.070663         3.546581         2.263967
 H        -2.787755        -0.088526         2.969291
 H         0.009803         0.120918         2.847156
 H        -0.812864        -1.329146         2.121212
