19
Iteration:  4870
 O         0.693090         0.117746         0.083494
 C        -0.577540         0.355696         0.707542
 C        -1.859749        -0.064900         0.013128
 C        -2.479276         1.030827         0.989574
 C        -1.257098         1.937718         0.911180
 C        -1.120996         2.551567         2.285916
 O        -1.937494         1.751382         3.164900
 C        -2.147460         0.488686         2.484438
 C        -0.748560        -0.180418         2.081517
 H         1.231973         0.919881         0.375161
 H        -1.875996         0.361906        -1.067961
 H        -2.061350        -1.204802         0.268091
 H        -3.453954         1.511822         0.921201
 H        -1.144109         2.645300         0.161360
 H        -0.126204         2.606533         2.679820
 H        -1.433933         3.539666         2.152446
 H        -2.917704        -0.052898         2.925055
 H        -0.038924         0.110822         2.842354
 H        -0.879156        -1.274830         2.096782
