19
Iteration:  1767charge 0 multiplicity 1
 O         0.699235         0.328409         0.051714
 C        -0.554071         0.374221         0.678334
 C        -1.893562        -0.026080         0.063441
 C        -2.573899         0.978135         1.007280
 C        -1.201449         1.815072         0.859837
 C        -1.049325         2.561333         2.266147
 O        -1.871513         1.683053         3.142217
 C        -2.175266         0.519588         2.484183
 C        -0.839260        -0.226188         2.180989
 H         1.423136         0.326711         0.758661
 H        -1.895532         0.247094        -1.103744
 H        -2.238077        -1.078751         0.011976
 H        -3.468242         1.474381         0.758935
 H        -1.041827         2.409137        -0.057837
 H        -0.064163         2.792348         2.681506
 H        -1.435826         3.549456         2.229391
 H        -2.901484        -0.011145         3.044362
 H        -0.054252        -0.066592         3.005936
 H        -1.022205        -1.271740         2.092255
