19
Iteration:  2230
 O         0.689368         0.149504         0.092063
 C        -0.576584         0.420355         0.691315
 C        -1.957064        -0.016512         0.016891
 C        -2.526537         0.946009         1.046801
 C        -1.212862         1.837254         0.913505
 C        -1.121675         2.582390         2.265273
 O        -1.961973         1.797977         3.137236
 C        -2.097692         0.501246         2.498722
 C        -0.682696        -0.215422         2.099423
 H         1.527525         0.447024         0.654256
 H        -1.944080         0.520517        -0.915743
 H        -2.140199        -1.051312        -0.152899
 H        -3.500814         1.503871         0.877057
 H        -1.254368         2.465083        -0.018424
 H        -0.106768         2.712947         2.529407
 H        -1.610138         3.561649         2.233975
 H        -2.817867        -0.183918         2.993952
 H         0.099748         0.057614         2.763423
 H        -0.690261        -1.352890         1.993729
