19
Iteration:  3683
 O         0.708800         0.200388         0.196492
 C        -0.585838         0.374125         0.698022
 C        -1.885892        -0.059632        -0.006931
 C        -2.504689         0.884829         0.911821
 C        -1.312656         1.872083         0.841239
 C        -1.088820         2.558622         2.268415
 O        -1.865971         1.707241         3.221761
 C        -2.086107         0.574543         2.445658
 C        -0.797984        -0.067318         2.201527
 H         0.747355         0.725639        -0.533566
 H        -1.859252         0.271507        -1.044799
 H        -2.304646        -1.130273         0.064158
 H        -3.518995         1.179535         0.693167
 H        -1.167245         2.389135        -0.045418
 H         0.034814         2.403344         2.549934
 H        -1.290953         3.579268         2.409580
 H        -2.877833        -0.068880         2.892111
 H         0.051725         0.093182         2.836284
 H        -1.049293        -1.105604         2.189614
