19
Iteration:   559charge 0 multiplicity 1
 O         0.626521         0.194181         0.066307
 C        -0.530317         0.438176         0.731839
 C        -1.967503         0.040599         0.001754
 C        -2.401167         1.106713         1.033403
 C        -1.159605         1.861649         0.889718
 C        -1.064056         2.478218         2.308028
 O        -2.005549         1.686494         3.083722
 C        -2.195946         0.526280         2.387607
 C        -0.694865        -0.280529         2.211693
 H         1.414506         0.195085         0.683888
 H        -1.944643         0.579564        -1.025594
 H        -2.428937        -0.891635         0.139051
 H        -3.225192         1.748305         0.893685
 H        -1.103595         2.288829        -0.101987
 H        -0.163417         2.438325         2.837790
 H        -1.609814         3.421242         2.567352
 H        -3.038374        -0.067293         2.790091
 H         0.095229         0.011680         2.956572
 H        -0.669955        -1.362784         2.093509
