19
Iteration:   970
 O         0.710117         0.294200         0.204275
 C        -0.591021         0.423891         0.615039
 C        -1.877588        -0.030126        -0.097524
 C        -2.480867         1.015448         0.990201
 C        -1.245673         1.857185         0.873002
 C        -1.030116         2.521233         2.312297
 O        -1.827922         1.734218         3.199343
 C        -2.162942         0.487869         2.467890
 C        -0.894122        -0.224543         2.124448
 H         0.884858        -0.747300         0.310577
 H        -1.918405         0.437506        -1.103373
 H        -2.113150        -1.018429        -0.147192
 H        -3.393733         1.513522         0.931636
 H        -1.225062         2.473083         0.027978
 H        -0.093723         2.526905         2.843584
 H        -1.570055         3.547542         2.499387
 H        -3.026552        -0.003506         2.987581
 H        -0.067393        -0.030046         2.807378
 H        -1.093588        -1.251445         1.972381
