19
Iteration:  2527charge 0 multiplicity 1
 O         0.689601         0.252673         0.113688
 C        -0.642848         0.449983         0.695895
 C        -1.908730        -0.076631         0.037814
 C        -2.501709         0.923180         0.997340
 C        -1.226233         1.847806         0.905565
 C        -1.075459         2.497154         2.263788
 O        -1.940720         1.760672         3.167874
 C        -2.113160         0.513135         2.477610
 C        -0.715131        -0.141385         2.054131
 H         1.511971         0.423025         0.758678
 H        -2.049221         0.202033        -1.020511
 H        -2.334776        -1.097022         0.296945
 H        -3.572480         1.281094         0.781588
 H        -1.334246         2.520094        -0.035415
 H         0.036750         2.517589         2.573535
 H        -1.411733         3.469905         2.232661
 H        -2.803152        -0.182432         2.833659
 H         0.076093         0.226686         2.611886
 H        -0.800270        -1.224478         2.285189
