19
Iteration:  2802
 O         0.691493         0.294008         0.186573
 C        -0.611453         0.450394         0.724642
 C        -1.893597        -0.058757        -0.014036
 C        -2.601560         0.906115         1.053066
 C        -1.284099         1.849537         0.857317
 C        -1.021634         2.550135         2.207650
 O        -1.928821         1.774611         3.107165
 C        -2.124013         0.516253         2.527188
 C        -0.711540        -0.211858         2.085765
 H         1.390741        -0.209420         0.734570
 H        -1.944680         0.512060        -1.003455
 H        -1.928994        -1.134664        -0.124263
 H        -3.588417         1.132612         0.828528
 H        -1.338981         2.457527        -0.078037
 H         0.025259         2.419946         2.589640
 H        -1.264034         3.703344         2.329119
 H        -2.849803        -0.052841         3.106292
 H         0.256633        -0.080327         2.621134
 H        -0.887583        -1.352984         2.008816
