19
Iteration:  3885
 O         0.690690         0.230758         0.130490
 C        -0.589208         0.344540         0.754908
 C        -1.898351         0.065225        -0.069144
 C        -2.561924         0.976707         0.956988
 C        -1.218881         1.843478         0.940900
 C        -1.144902         2.573335         2.263406
 O        -1.829507         1.744569         3.151719
 C        -2.129481         0.495493         2.448254
 C        -0.783870        -0.304086         2.110601
 H         1.393190         0.356959         0.886838
 H        -1.823280         0.655626        -1.002875
 H        -2.335991        -0.963206        -0.127116
 H        -3.554238         1.471319         0.932276
 H        -0.994098         2.508004         0.075409
 H        -0.035997         2.744744         2.501203
 H        -1.520040         3.578779         2.320597
 H        -2.972097         0.053308         2.992553
 H        -0.094929        -0.033634         2.958416
 H        -0.818040        -1.410865         2.083188
