19
Iteration:  1461charge 0 multiplicity 1
 O         0.723198         0.247780         0.167942
 C        -0.588348         0.441336         0.617591
 C        -1.928258         0.017194        -0.054475
 C        -2.529619         0.964268         0.980333
 C        -1.178153         1.800361         0.922803
 C        -1.078895         2.464333         2.310775
 O        -1.878070         1.743813         3.212225
 C        -2.194441         0.468394         2.461664
 C        -0.815960        -0.155917         2.037663
 H         1.284602         0.128264         1.076330
 H        -2.038551         0.452788        -1.140300
 H        -2.161728        -1.021005         0.052678
 H        -3.564506         1.427052         0.921703
 H        -1.253654         2.681419         0.249337
 H        -0.023558         2.436568         2.607131
 H        -1.277359         3.628435         2.194453
 H        -2.957894        -0.147290         2.941996
 H         0.017283         0.293871         2.765755
 H        -0.679538        -1.240157         1.940306
