19
Iteration:  4802charge 0 multiplicity 1
 O         0.743818         0.393799         0.153588
 C        -0.598249         0.483815         0.720722
 C        -1.881216        -0.076369        -0.013919
 C        -2.513688         1.008472         0.977459
 C        -1.216263         1.830806         0.934599
 C        -1.094300         2.510825         2.225087
 O        -1.728581         1.712963         3.156797
 C        -2.214267         0.513427         2.424667
 C        -0.937238        -0.303276         2.164681
 H         1.166313        -0.424339         0.350291
 H        -2.047783         0.346425        -1.062254
 H        -2.251855        -1.158845         0.227460
 H        -3.515807         1.265083         0.679377
 H        -1.132774         2.580067         0.124800
 H        -0.034651         2.644323         2.490623
 H        -1.568565         3.450552         2.179488
 H        -2.983494         0.043893         3.089459
 H        -0.226665        -0.211622         2.963707
 H        -1.073120        -1.339199         1.804000
