19
Iteration:  3549charge 0 multiplicity 1
 O         0.734286         0.373872         0.093739
 C        -0.539012         0.384051         0.738438
 C        -1.836225        -0.073412        -0.018524
 C        -2.517797         0.918972         1.064551
 C        -1.273151         1.795950         0.856914
 C        -1.047220         2.487603         2.152954
 O        -1.907949         1.803400         3.152408
 C        -2.180049         0.559701         2.499435
 C        -0.828689        -0.214277         2.245635
 H         1.113526        -0.438709         0.030656
 H        -2.062706         0.257125        -1.083982
 H        -2.101348        -1.137094        -0.019641
 H        -3.575773         1.311458         0.854107
 H        -1.350458         2.419316        -0.014114
 H         0.043924         2.621542         2.440931
 H        -1.515495         3.462223         2.125545
 H        -3.002242         0.021300         3.028589
 H        -0.082749         0.116895         2.997596
 H        -0.913992        -1.256746         2.242570
