19
Iteration:  3592charge 0 multiplicity 1
 O         0.744320         0.246820         0.167751
 C        -0.586622         0.425583         0.728202
 C        -1.892100        -0.035933         0.074068
 C        -2.468421         0.994320         1.047213
 C        -1.310056         1.914586         0.766904
 C        -1.202765         2.632457         2.149181
 O        -1.791088         1.667875         3.141042
 C        -2.148581         0.450950         2.422713
 C        -0.754597        -0.208006         2.204708
 H         0.922858        -0.655398         0.504084
 H        -1.873090         0.279938        -0.995998
 H        -2.154170        -1.063480         0.149277
 H        -3.556155         1.375768         1.119390
 H        -1.386821         2.518105        -0.151288
 H        -0.146210         2.787924         2.513868
 H        -1.705751         3.665427         2.205008
 H        -3.052832         0.030126         2.904376
 H        -0.012898         0.100008         2.967366
 H        -0.816341        -1.251084         2.136452
