19
Iteration:  1095
 O         0.735889         0.310722         0.112697
 C        -0.596932         0.380452         0.707328
 C        -1.887146         0.020531        -0.041706
 C        -2.456121         0.981398         0.965594
 C        -1.264020         1.907758         0.943873
 C        -1.067246         2.597882         2.287710
 O        -1.786705         1.668518         3.189354
 C        -2.192983         0.511739         2.408037
 C        -0.944078        -0.315506         2.143080
 H         1.345323        -0.321916         0.683747
 H        -2.002888         0.406485        -1.030238
 H        -2.137292        -1.075732        -0.008859
 H        -3.494750         1.317526         0.646214
 H        -1.036003         2.573725         0.039544
 H        -0.019409         2.732972         2.531237
 H        -1.681275         3.605560         2.527591
 H        -3.048581         0.148206         2.954862
 H        -0.128422        -0.094336         2.855442
 H        -0.973075        -1.460809         2.010618
