19
Iteration:   986
 O         0.706966         0.325188         0.182792
 C        -0.617943         0.400287         0.797657
 C        -1.898718         0.069268        -0.015650
 C        -2.550354         0.991965         0.993025
 C        -1.137347         1.821369         0.929465
 C        -1.064410         2.518177         2.231821
 O        -1.877206         1.693902         3.208132
 C        -2.186578         0.556870         2.402170
 C        -0.818003        -0.271616         2.049052
 H         0.936537        -0.694789        -0.060917
 H        -1.962124         0.457394        -1.060047
 H        -2.314541        -1.059939        -0.037493
 H        -3.581631         1.377495         0.643382
 H        -0.943314         2.516070         0.017623
 H         0.023189         2.608246         2.588007
 H        -1.362164         3.548442         2.172904
 H        -2.859465        -0.008713         3.014783
 H        -0.002369        -0.137740         2.791639
 H        -0.825527        -1.431957         2.043879
