19
Iteration:  3273
 O         0.705284         0.321109         0.199505
 C        -0.589340         0.420647         0.728733
 C        -1.913413        -0.105012         0.083140
 C        -2.573806         0.997555         1.026290
 C        -1.297961         1.797095         0.873137
 C        -1.082334         2.546554         2.210927
 O        -1.826739         1.698819         3.082970
 C        -2.149387         0.527205         2.402538
 C        -0.746831        -0.155271         2.111592
 H         1.363361         0.185937         0.806766
 H        -1.878457         0.213148        -0.955172
 H        -2.347508        -1.172009         0.154260
 H        -3.572574         1.418837         0.863859
 H        -1.131104         2.436780        -0.118918
 H         0.057257         2.565519         2.395304
 H        -1.485621         3.514350         2.170303
 H        -2.864129        -0.109386         2.970586
 H         0.018817         0.046669         2.884205
 H        -0.875918        -1.252893         2.082279
