19
Iteration:  1310charge 0 multiplicity 1
 O         0.608029         0.300574         0.056621
 C        -0.582293         0.457909         0.726020
 C        -1.901654        -0.001777         0.025823
 C        -2.426340         1.006350         0.953732
 C        -1.128987         1.832222         0.943099
 C        -1.071160         2.561067         2.290766
 O        -1.948799         1.670400         3.156122
 C        -2.084621         0.513871         2.432695
 C        -0.868506        -0.295569         2.153950
 H         1.335257         0.205191         0.801699
 H        -1.828008         0.282208        -1.159785
 H        -2.391013        -0.970623         0.106850
 H        -3.378206         1.580013         0.742800
 H        -1.085057         2.351054        -0.095325
 H        -0.052062         2.656601         2.807871
 H        -1.426341         3.585947         2.129290
 H        -2.857599        -0.044261         2.958351
 H        -0.042584        -0.210456         2.905527
 H        -0.958819        -1.351459         2.093901
