19
Iteration:   815charge 0 multiplicity 1
 O         0.663982         0.320205         0.177222
 C        -0.634540         0.336593         0.734341
 C        -1.831544        -0.019934        -0.028695
 C        -2.464564         1.081478         1.013526
 C        -1.268308         1.938956         0.971359
 C        -1.002538         2.562154         2.258436
 O        -1.861363         1.695974         3.109517
 C        -2.173877         0.494671         2.361678
 C        -0.840182        -0.331426         2.096955
 H         1.224069        -0.489272         0.542098
 H        -1.919504         0.384190        -0.987429
 H        -2.161698        -1.072613         0.116211
 H        -3.533229         1.518192         1.011778
 H        -1.204726         2.420884        -0.017831
 H         0.008400         2.448526         2.604743
 H        -1.441121         3.648455         2.427772
 H        -3.018399         0.094178         2.993367
 H        -0.090170        -0.043569         2.830939
 H        -1.012972        -1.404320         2.006822
