19
Iteration:  4864charge 0 multiplicity 1
 O         0.745051         0.090660         0.135705
 C        -0.582178         0.364244         0.672887
 C        -1.875182        -0.056192         0.009448
 C        -2.507424         1.056931         1.044837
 C        -1.256718         1.890822         0.914437
 C        -1.148314         2.586619         2.254798
 O        -1.910909         1.718041         3.208821
 C        -2.134121         0.506515         2.452451
 C        -0.778438        -0.147406         2.065274
 H         1.135498         0.912402         0.138199
 H        -1.886767         0.370911        -0.932394
 H        -2.077129        -1.068451        -0.016875
 H        -3.540347         1.409935         0.793845
 H        -1.085044         2.578751        -0.022532
 H        -0.110570         2.691890         2.715731
 H        -1.527762         3.700299         2.033558
 H        -2.875411        -0.186269         3.037105
 H         0.003138        -0.032159         2.883556
 H        -0.889074        -1.236102         1.903180
