19
Iteration:  2374
 O         0.675297         0.268650         0.018285
 C        -0.521372         0.398779         0.776642
 C        -1.988929        -0.106608         0.085299
 C        -2.467952         1.003972         1.044116
 C        -1.174569         1.803693         0.889998
 C        -1.188433         2.614015         2.243146
 O        -1.910637         1.732227         3.113122
 C        -2.161514         0.536907         2.423299
 C        -0.696109        -0.254558         2.164069
 H         1.584017         0.444655         0.595706
 H        -1.854941         0.205553        -0.924403
 H        -2.272605        -1.136188         0.268885
 H        -3.456457         1.677746         1.018402
 H        -1.138837         2.363570        -0.198893
 H        -0.141041         2.787624         2.602823
 H        -1.749365         3.559823         2.193460
 H        -2.925438        -0.032898         2.981985
 H         0.010826         0.008990         2.905076
 H        -0.801684        -1.341376         1.941826
