19
Iteration:    64
 O         0.662436         0.372041         0.144732
 C        -0.573479         0.407431         0.772972
 C        -1.803636        -0.026301        -0.005397
 C        -2.529325         1.083635         0.929895
 C        -1.173805         1.855294         0.942857
 C        -1.017069         2.508462         2.297439
 O        -1.769030         1.672040         3.210547
 C        -2.253576         0.533727         2.335311
 C        -1.004617        -0.325763         2.076653
 H         1.111038        -0.473511         0.358611
 H        -1.871835         0.137043        -1.029229
 H        -1.983420        -1.113684         0.197741
 H        -3.518486         1.539885         0.695163
 H        -0.851980         2.491584         0.100854
 H         0.029340         2.561164         2.604736
 H        -1.385508         3.642079         2.363501
 H        -3.119841         0.116275         2.807280
 H        -0.333005        -0.133391         2.932646
 H        -0.999070        -1.395786         2.098810
