19
Iteration:  1054charge 0 multiplicity 1
 O         0.713320         0.271835         0.144508
 C        -0.558373         0.435994         0.689980
 C        -1.913234         0.027436        -0.032571
 C        -2.496106         0.986737         1.000177
 C        -1.204582         1.919711         0.908239
 C        -1.017780         2.522556         2.283411
 O        -1.941940         1.663006         3.132468
 C        -2.177977         0.501259         2.463392
 C        -0.811011        -0.215496         2.125845
 H         0.975538        -0.547946         0.408518
 H        -1.985543         0.467793        -1.015134
 H        -2.359529        -1.053465        -0.138832
 H        -3.487066         1.417964         0.979637
 H        -1.221106         2.575766         0.063109
 H         0.008315         2.272849         2.616075
 H        -1.113541         3.522176         2.391198
 H        -3.039177        -0.063504         2.846573
 H        -0.060214         0.135319         2.852826
 H        -0.805990        -1.309951         2.311602
