19
Iteration:  4304charge 0 multiplicity 1
 O         0.741800         0.132865         0.140739
 C        -0.579555         0.463958         0.710118
 C        -1.839916         0.032399        -0.016423
 C        -2.538386         1.001940         1.025648
 C        -1.191231         1.880885         0.899811
 C        -1.188074         2.546570         2.268344
 O        -1.852508         1.684305         3.228887
 C        -2.106174         0.513713         2.387743
 C        -0.844248        -0.246513         2.126758
 H         1.020411         0.834520        -0.593674
 H        -1.797785         0.578892        -1.029118
 H        -2.074969        -1.035539        -0.009906
 H        -3.643737         1.287915         0.952421
 H        -1.084198         2.515237         0.106896
 H        -0.318183         2.742688         2.895759
 H        -1.715009         3.620561         2.146320
 H        -2.836450        -0.080674         3.020873
 H        -0.180012        -0.077718         2.915100
 H        -1.036890        -1.276858         1.874866
