19
Iteration:    74
 O         0.709230         0.374921         0.091265
 C        -0.545298         0.405057         0.776880
 C        -1.899464        -0.027662        -0.077993
 C        -2.469742         1.050790         0.822608
 C        -1.119369         1.806464         0.970719
 C        -1.058314         2.479383         2.333322
 O        -1.799194         1.678344         3.216776
 C        -2.275449         0.566333         2.426380
 C        -0.940089        -0.260061         2.191572
 H         1.062810        -0.602790         0.074258
 H        -1.923459         0.263506        -1.104708
 H        -2.354904        -1.069685         0.071330
 H        -3.449139         1.591247         0.683611
 H        -0.914059         2.507971         0.129661
 H        -0.048951         2.596652         2.772247
 H        -1.615733         3.513176         2.189466
 H        -3.058695         0.111568         3.015118
 H        -0.231209        -0.195751         3.050816
 H        -1.222756        -1.297207         1.880901
