19
Iteration:  2306
 O         0.652839         0.222343         0.203171
 C        -0.596527         0.428623         0.696707
 C        -1.930754        -0.034983        -0.034490
 C        -2.501787         0.878918         1.023547
 C        -1.284475         1.886184         0.848743
 C        -1.101956         2.591462         2.243974
 O        -1.899114         1.766029         3.109327
 C        -2.061935         0.507564         2.522036
 C        -0.703655        -0.213710         2.101492
 H         1.319700         0.374282         0.791918
 H        -2.041063         0.419959        -1.027510
 H        -2.371463        -1.075825         0.021659
 H        -3.528556         1.363986         1.011879
 H        -1.301504         2.342353        -0.183362
 H        -0.004243         2.507375         2.554283
 H        -1.403109         3.636186         2.283028
 H        -2.777072        -0.077653         3.153511
 H         0.059137        -0.012624         2.782009
 H        -0.735764        -1.312347         1.798812
