19
Iteration:  3429
 O         0.741571         0.289753         0.098813
 C        -0.570132         0.327929         0.749956
 C        -1.897503        -0.044706         0.126417
 C        -2.436949         1.002644         1.022841
 C        -1.285500         1.822693         0.813401
 C        -1.224660         2.568422         2.226291
 O        -1.812962         1.746232         3.156280
 C        -2.146793         0.507627         2.373146
 C        -0.824408        -0.215629         2.139032
 H         1.507149         0.294995         0.853698
 H        -2.107862         0.199876        -0.981610
 H        -2.198693        -1.101559         0.402151
 H        -3.464911         1.423937         0.893028
 H        -1.165330         2.288917        -0.112685
 H        -0.150667         2.832695         2.461221
 H        -1.712602         3.485761         2.160365
 H        -2.932610        -0.028388         2.882950
 H        -0.042434         0.235655         2.805195
 H        -0.850884        -1.327338         2.148330
