19
Iteration:  4584
 O         0.660439         0.016580         0.060125
 C        -0.528100         0.487103         0.766894
 C        -1.866855         0.109876        -0.031006
 C        -2.448307         1.004970         1.023195
 C        -1.236135         1.988332         0.901888
 C        -1.216865         2.527799         2.354302
 O        -1.893929         1.632308         3.223365
 C        -2.097365         0.511444         2.395800
 C        -0.783088        -0.225804         2.083949
 H         1.336358         0.729807        -0.205874
 H        -1.683356         0.585028        -1.010824
 H        -2.037434        -0.959831        -0.217651
 H        -3.401677         1.547587         0.971970
 H        -1.154455         2.701875         0.067403
 H        -0.225772         2.748730         2.737257
 H        -1.950709         3.497509         2.372248
 H        -2.884027        -0.117681         2.928718
 H        -0.105001        -0.123498         2.953728
 H        -0.932909        -1.340836         1.941364
