19
Iteration:  1604charge 0 multiplicity 1
 O         0.699914         0.439498         0.131708
 C        -0.530465         0.404169         0.702683
 C        -1.977796        -0.033152         0.043350
 C        -2.471221         1.005073         1.011482
 C        -1.142704         1.787566         0.862742
 C        -1.040223         2.417332         2.276672
 O        -1.889249         1.711047         3.156233
 C        -2.164448         0.503558         2.399573
 C        -0.899833        -0.214885         2.122121
 H         1.360356        -0.279722         0.574478
 H        -2.257064         0.338593        -1.006604
 H        -2.278720        -1.053020         0.021857
 H        -3.390867         1.490658         0.943865
 H        -0.999878         2.459276         0.010283
 H        -0.105571         2.599569         2.802123
 H        -1.406485         3.417115         2.222280
 H        -2.940684         0.000024         2.887955
 H        -0.033974        -0.036951         2.822054
 H        -1.091495        -1.265945         2.099781
