19
Iteration:  1959charge 0 multiplicity 1
 O         0.661353         0.257777         0.003673
 C        -0.617146         0.384529         0.751291
 C        -1.811238        -0.087741         0.029109
 C        -2.525335         0.939127         0.979403
 C        -1.210275         1.873527         0.933388
 C        -1.163180         2.624836         2.271414
 O        -1.827090         1.757451         3.227785
 C        -2.146971         0.489633         2.417320
 C        -0.804778        -0.180199         2.141632
 H         1.264031        -0.420375         0.245539
 H        -1.900433         0.253102        -0.955410
 H        -2.025273        -1.198916         0.269401
 H        -3.446042         1.366170         0.611972
 H        -0.938764         2.481125         0.077346
 H        -0.145111         2.763211         2.691521
 H        -1.645268         3.507922         2.203671
 H        -2.998354         0.056173         2.920093
 H        -0.077815         0.170611         2.809722
 H        -0.983485        -1.235468         2.150382
