19
Iteration:  4944
 O         0.738457         0.178784         0.302329
 C        -0.575944         0.457663         0.724543
 C        -1.881361        -0.044605         0.041096
 C        -2.562800         0.970052         1.056613
 C        -1.281383         1.861314         0.876606
 C        -1.147316         2.569693         2.179319
 O        -1.832042         1.745708         3.106243
 C        -2.102284         0.529801         2.448558
 C        -0.793487        -0.251523         2.060753
 H         0.940409         0.894879        -0.253716
 H        -1.846664         0.257775        -1.049085
 H        -2.240153        -1.071554         0.089644
 H        -3.586340         1.210760         0.875361
 H        -1.339750         2.495094         0.006451
 H        -0.024110         2.680903         2.440784
 H        -1.599571         3.569399         2.050718
 H        -2.765186        -0.023587         3.077757
 H         0.012523        -0.038957         2.716662
 H        -0.810685        -1.370983         1.879650
