19
Iteration:   975charge 0 multiplicity 1
 O         0.672932         0.294683         0.219053
 C        -0.582563         0.413057         0.651400
 C        -1.891652        -0.012385        -0.088366
 C        -2.475715         0.986829         0.979614
 C        -1.185020         1.858834         0.842788
 C        -1.050224         2.541217         2.340027
 O        -1.846597         1.705542         3.200859
 C        -2.213537         0.530805         2.504833
 C        -0.832875        -0.238849         2.102854
 H         0.974884        -0.614947         0.142308
 H        -1.988543         0.537752        -1.053280
 H        -2.107949        -1.172568        -0.180762
 H        -3.448385         1.591596         0.850806
 H        -1.185422         2.504069        -0.119515
 H         0.045732         2.533645         2.644052
 H        -1.525724         3.504827         2.361342
 H        -3.026586         0.040186         3.014736
 H        -0.010743        -0.042923         2.822376
 H        -1.062030        -1.326513         1.819674
