19
Iteration:  4280
 O         0.712864         0.093187         0.170370
 C        -0.544352         0.374012         0.727254
 C        -1.776999         0.086983        -0.074521
 C        -2.496879         0.999732         0.948214
 C        -1.292021         1.887294         0.975975
 C        -1.213149         2.670726         2.277099
 O        -1.816193         1.675888         3.246361
 C        -2.158750         0.431989         2.416070
 C        -0.810782        -0.226478         2.106196
 H         0.613057         0.362420        -0.809089
 H        -1.744945         0.645037        -1.038339
 H        -2.154014        -0.906568        -0.045501
 H        -3.448372         1.492028         0.713246
 H        -1.279914         2.506758         0.078691
 H        -0.244881         2.824183         2.694616
 H        -1.708415         3.742180         2.454980
 H        -2.918024        -0.082577         3.075127
 H        -0.072311         0.191177         2.800394
 H        -0.762408        -1.275256         1.914062
