19
Iteration:  1276charge 0 multiplicity 1
 O         0.736301         0.204267         0.130040
 C        -0.593763         0.500630         0.744453
 C        -1.871735         0.055773        -0.024937
 C        -2.565471         0.938950         0.954306
 C        -1.237238         1.844774         0.939582
 C        -1.120122         2.535730         2.276645
 O        -1.742052         1.667188         3.155162
 C        -2.154961         0.534614         2.424269
 C        -0.890056        -0.247018         2.105945
 H         1.179199         0.098601         0.936413
 H        -1.878969         0.583333        -1.115397
 H        -2.265538        -0.941908        -0.066942
 H        -3.579883         1.329159         0.643845
 H        -1.232236         2.499481         0.006252
 H        -0.058705         2.681785         2.651690
 H        -1.700518         3.509405         2.306932
 H        -2.831137         0.034172         3.161907
 H        -0.127114         0.106929         2.860686
 H        -1.101037        -1.302104         2.016592
