19
Iteration:   612charge 0 multiplicity 1
 O         0.682143         0.112967         0.085241
 C        -0.555434         0.453781         0.727917
 C        -1.828413         0.072541         0.019903
 C        -2.540035         1.082355         0.977555
 C        -1.238039         1.936552         0.948304
 C        -1.066998         2.562942         2.220192
 O        -1.896092         1.694105         3.229160
 C        -2.174430         0.458392         2.382394
 C        -0.842175        -0.291188         2.112646
 H         1.453640         0.334706         0.727158
 H        -1.710120         0.342482        -1.099769
 H        -2.190245        -0.931432         0.077663
 H        -3.573522         1.411729         0.826011
 H        -1.042646         2.549453         0.063894
 H        -0.062964         2.500623         2.637522
 H        -1.386930         3.717885         2.400283
 H        -3.026658        -0.127869         2.885022
 H        -0.143206        -0.155043         2.983661
 H        -0.846596        -1.355387         1.810647
