19
Iteration:  3656charge 0 multiplicity 1
 O         0.739575         0.208289         0.109473
 C        -0.588882         0.454452         0.713679
 C        -1.887407        -0.037909         0.081023
 C        -2.631404         0.955302         1.069158
 C        -1.248535         1.811347         0.925170
 C        -1.061564         2.445676         2.229303
 O        -1.922170         1.793602         3.064040
 C        -2.129189         0.509042         2.431632
 C        -0.743674        -0.164588         2.162812
 H         1.237665         0.936019         0.275725
 H        -1.819452         0.198607        -0.989932
 H        -2.190305        -1.015944         0.319155
 H        -3.633955         1.439113         0.872310
 H        -1.165833         2.477281        -0.039162
 H        -0.111079         2.464104         2.654087
 H        -1.327412         3.577936         2.061869
 H        -2.961225        -0.023945         2.879754
 H         0.137683         0.027090         2.850051
 H        -0.655226        -1.286253         1.996993
