19
Iteration:  3274
 O         0.698395         0.319048         0.203491
 C        -0.586041         0.417399         0.736037
 C        -1.918232        -0.104885         0.087402
 C        -2.572043         0.991876         1.011632
 C        -1.298450         1.805600         0.859690
 C        -1.093346         2.551048         2.215483
 O        -1.822972         1.705763         3.087230
 C        -2.140591         0.519166         2.405182
 C        -0.742081        -0.156629         2.102389
 H         1.401100         0.167165         0.836377
 H        -1.883936         0.252411        -0.948349
 H        -2.370742        -1.180652         0.129744
 H        -3.557838         1.422578         0.877050
 H        -1.125991         2.425177        -0.063291
 H         0.034996         2.539055         2.381368
 H        -1.486685         3.541649         2.186001
 H        -2.844114        -0.101892         2.962047
 H         0.053556         0.029607         2.891237
 H        -0.913925        -1.263718         2.091380
