19
Iteration:   887
 O         0.620805         0.104034         0.076895
 C        -0.505881         0.446355         0.719585
 C        -1.836197         0.071669        -0.017334
 C        -2.443314         1.052454         1.032405
 C        -1.183821         1.906984         0.916370
 C        -1.079728         2.481361         2.252138
 O        -1.955492         1.681792         3.181644
 C        -2.158582         0.486488         2.432787
 C        -0.873483        -0.190793         2.130497
 H         1.408162         0.755862         0.343877
 H        -1.918830         0.451568        -1.099168
 H        -2.013620        -1.069557         0.096369
 H        -3.442157         1.599017         0.998946
 H        -1.190034         2.693400         0.078130
 H         0.039133         2.510997         2.732436
 H        -1.433543         3.459651         2.351510
 H        -2.943302        -0.112018         2.839635
 H        -0.080248        -0.099249         2.909224
 H        -0.998676        -1.316751         2.023932
