19
Iteration:  4074
 O         0.678934         0.247699         0.204623
 C        -0.577315         0.457882         0.731256
 C        -1.865830        -0.016875         0.023547
 C        -2.449381         1.023567         0.992927
 C        -1.267602         1.880702         0.862364
 C        -1.018128         2.392089         2.240817
 O        -1.949771         1.691662         3.155936
 C        -2.166095         0.521664         2.420366
 C        -0.775356        -0.185772         2.143243
 H         0.782294         1.035152        -0.523682
 H        -1.876286         0.408585        -1.038210
 H        -2.162802        -1.035308         0.129058
 H        -3.484594         1.387500         0.757248
 H        -1.255041         2.459300         0.029744
 H        -0.010664         2.019997         2.630865
 H        -1.094044         3.457966         2.348352
 H        -3.082841         0.017764         2.849537
 H        -0.053042         0.132051         2.906107
 H        -0.888446        -1.287250         2.185226
