19
Iteration:  2032charge 0 multiplicity 1
 O         0.678989         0.357616         0.201582
 C        -0.622176         0.460208         0.706812
 C        -1.821025        -0.100597         0.000210
 C        -2.564018         0.936043         0.944695
 C        -1.317247         1.827084         0.824418
 C        -1.033600         2.524232         2.170003
 O        -1.780084         1.731128         3.245429
 C        -2.120364         0.544178         2.482978
 C        -0.842046        -0.179533         2.138952
 H         0.866252        -0.643317         0.103426
 H        -2.054874         0.246474        -1.024300
 H        -1.951212        -1.108835         0.146962
 H        -3.603126         1.016085         0.734032
 H        -1.309630         2.467688        -0.010379
 H         0.041944         2.425674         2.174434
 H        -1.382047         3.658690         2.298479
 H        -2.836642         0.013121         3.126119
 H        -0.123751         0.170454         2.861567
 H        -1.074382        -1.286965         2.236770
