19
Iteration:  3807
 O         0.766957         0.244688         0.124671
 C        -0.585204         0.405260         0.698698
 C        -1.871707        -0.056099        -0.016412
 C        -2.530181         0.959921         0.999929
 C        -1.123046         1.790941         0.939552
 C        -1.069577         2.473362         2.310721
 O        -1.931123         1.796083         3.134726
 C        -2.197703         0.515771         2.467046
 C        -0.840605        -0.154961         2.188651
 H         0.700605         0.807344        -0.690498
 H        -2.232002         0.376276        -0.980706
 H        -2.122911        -1.153351        -0.286543
 H        -3.545536         1.393096         0.923200
 H        -1.107040         2.474226        -0.019565
 H         0.036959         2.390858         2.693779
 H        -1.393364         3.499152         2.201090
 H        -2.941562         0.023720         3.081303
 H        -0.026054         0.084844         2.875853
 H        -1.016254        -1.253075         2.012704
