19
Iteration:   861charge 0 multiplicity 1
 O         0.632148         0.117544         0.081570
 C        -0.560542         0.339023         0.714962
 C        -1.886206         0.020322        -0.057418
 C        -2.544981         1.051130         0.979386
 C        -1.200344         1.906987         0.922504
 C        -1.051852         2.540899         2.374148
 O        -1.896399         1.729343         3.166424
 C        -2.168836         0.515148         2.394253
 C        -0.772826        -0.242759         2.114933
 H         1.285867         0.614862         0.811099
 H        -1.549123         0.609350        -0.988390
 H        -2.170748        -0.985542        -0.212024
 H        -3.471576         1.550316         0.879386
 H        -1.220313         2.628737         0.146660
 H        -0.041369         2.591577         2.861231
 H        -1.585064         3.545098         2.364079
 H        -3.001230        -0.078336         2.947473
 H        -0.047337         0.218317         2.830713
 H        -0.644078        -1.315867         2.084195
