19
Iteration:  3557charge 0 multiplicity 1
 O         0.751975         0.366922         0.136918
 C        -0.547960         0.357518         0.684024
 C        -1.886032        -0.076166         0.026844
 C        -2.543307         0.897334         1.059211
 C        -1.208191         1.760314         0.822780
 C        -1.086672         2.553904         2.180624
 O        -1.898016         1.807455         3.195265
 C        -2.197832         0.551345         2.504407
 C        -0.817243        -0.168327         2.162138
 H         1.049506        -0.510562         0.087091
 H        -1.831828         0.435311        -0.908190
 H        -2.130363        -1.102656        -0.130967
 H        -3.583359         1.192383         0.938680
 H        -1.174422         2.279495        -0.254853
 H        -0.060800         2.612239         2.516569
 H        -1.587405         3.640830         2.116744
 H        -2.851270        -0.081606         3.069085
 H         0.025793         0.004855         2.827380
 H        -0.965957        -1.253585         2.159185
