19
Iteration:   305charge 0 multiplicity 1
 O         0.640817         0.169504         0.168562
 C        -0.604663         0.475210         0.770630
 C        -1.864767        -0.002351        -0.009775
 C        -2.487297         1.122066         1.011849
 C        -1.189746         1.934063         0.878833
 C        -1.023065         2.562473         2.270125
 O        -1.915446         1.630274         3.095757
 C        -2.183126         0.425922         2.378667
 C        -0.809341        -0.198577         2.116621
 H         1.309402        -0.198150         0.864151
 H        -1.820047         0.397160        -1.029264
 H        -2.159199        -1.084056         0.214919
 H        -3.414349         1.638058         0.822375
 H        -1.135924         2.496622        -0.040145
 H         0.025342         2.369114         2.657522
 H        -1.396517         3.447854         2.519548
 H        -3.047993        -0.113402         2.857504
 H        -0.161796         0.230704         2.915327
 H        -0.760187        -1.298519         1.991016
