19
Iteration:  3194charge 0 multiplicity 1
 O         0.706643         0.085129         0.087153
 C        -0.522919         0.379398         0.673531
 C        -1.897157        -0.015338         0.007444
 C        -2.537210         0.971481         0.980006
 C        -1.231871         1.839773         0.891148
 C        -1.209389         2.578565         2.283056
 O        -1.905720         1.690100         3.215963
 C        -2.113611         0.564368         2.423056
 C        -0.729527        -0.105593         2.152942
 H         1.418994         0.625340         0.478124
 H        -1.852738         0.333049        -1.053740
 H        -2.141865        -1.088231         0.065050
 H        -3.459711         1.578802         0.965623
 H        -1.249175         2.638914        -0.041401
 H        -0.194930         2.915313         2.679398
 H        -1.719304         3.498254         2.118963
 H        -2.821889        -0.136868         2.932585
 H         0.047283         0.334608         2.738998
 H        -0.837730        -1.159172         2.342219
