19
Iteration:  2738charge 0 multiplicity 1
 O         0.677346         0.333716         0.157974
 C        -0.562358         0.336013         0.765547
 C        -1.885035        -0.082831         0.014736
 C        -2.498834         0.951918         0.950808
 C        -1.245089         1.857463         0.909784
 C        -1.160952         2.666826         2.186583
 O        -1.898915         1.763436         3.166101
 C        -2.055593         0.459204         2.502656
 C        -0.754692        -0.220884         2.139821
 H         0.705481        -0.539606        -0.272370
 H        -1.889962         0.384938        -1.012435
 H        -2.225936        -1.099236         0.068382
 H        -3.410124         1.509117         0.818184
 H        -1.275821         2.400231        -0.057410
 H        -0.122969         2.782084         2.612049
 H        -1.640952         3.544970         2.125990
 H        -2.764826        -0.192820         3.123657
 H         0.173942        -0.201242         2.748687
 H        -0.945815        -1.239643         2.038326
