19
Iteration:  3664
 O         0.670786         0.181628         0.161051
 C        -0.609904         0.472710         0.707788
 C        -1.821611        -0.126381         0.005695
 C        -2.581205         0.978615         1.038844
 C        -1.244382         1.836767         0.889909
 C        -1.023388         2.482452         2.246517
 O        -1.903075         1.783006         3.144656
 C        -2.187060         0.505066         2.437835
 C        -0.763984        -0.137389         2.125598
 H         1.088627         1.035716         0.049396
 H        -1.965026         0.113992        -1.042696
 H        -2.011842        -1.280548         0.110790
 H        -3.524910         1.394107         0.835214
 H        -1.268999         2.628774         0.019579
 H         0.048311         2.468488         2.610654
 H        -1.346163         3.512328         2.261281
 H        -2.867194        -0.091802         3.021162
 H        -0.055468         0.418273         2.734995
 H        -0.502175        -1.272915         2.095750
