19
Iteration:  1383charge 0 multiplicity 1
 O         0.701470         0.212766         0.053905
 C        -0.524329         0.404453         0.736671
 C        -1.910255         0.045892        -0.001749
 C        -2.446436         1.067949         0.972643
 C        -1.227767         1.850002         0.930655
 C        -1.078979         2.563515         2.306323
 O        -1.915784         1.723573         3.183929
 C        -2.160458         0.443440         2.427466
 C        -0.817719        -0.303186         2.108310
 H         1.348291         0.412480         0.734308
 H        -2.016534         0.509733        -0.986258
 H        -2.314980        -0.969847         0.051991
 H        -3.485961         1.440410         0.760802
 H        -1.174861         2.551621         0.103311
 H        -0.087217         2.852228         2.612604
 H        -1.826408         3.469548         2.213511
 H        -2.933879        -0.184121         2.972900
 H        -0.133547         0.001956         2.982538
 H        -0.846642        -1.426099         1.992536
