19
Iteration:  3207
 O         0.684280         0.103232         0.057175
 C        -0.564790         0.445411         0.746849
 C        -1.904507        -0.033338         0.000726
 C        -2.423812         0.962532         1.068192
 C        -1.186623         1.857786         0.893787
 C        -1.154261         2.588571         2.232501
 O        -1.970842         1.763027         3.151312
 C        -2.131270         0.452078         2.447244
 C        -0.730436        -0.108701         2.158214
 H         1.355830         0.731916         0.517295
 H        -2.138178         0.459168        -0.954787
 H        -2.359947        -1.111724        -0.086566
 H        -3.496466         1.189396         0.821692
 H        -1.118273         2.469274        -0.104891
 H        -0.131740         2.627772         2.723998
 H        -1.678436         3.484032         2.266424
 H        -2.959205        -0.095317         3.018092
 H        -0.073969         0.097410         3.029162
 H        -0.561560        -1.181159         1.872958
