19
Iteration:  1162
 O         0.716011         0.122414         0.105354
 C        -0.566561         0.451402         0.708429
 C        -1.848951         0.083442        -0.052960
 C        -2.517884         1.044666         0.992576
 C        -1.251960         1.824133         0.954934
 C        -1.068544         2.458998         2.308233
 O        -1.931412         1.692184         3.178240
 C        -2.204290         0.529019         2.495995
 C        -0.757335        -0.165553         2.029088
 H         1.410151         0.523612         0.580874
 H        -2.057723         0.546748        -0.955395
 H        -2.286021        -0.957451        -0.045112
 H        -3.473391         1.504750         0.771037
 H        -1.131879         2.471077         0.117935
 H        -0.065823         2.426675         2.692799
 H        -1.523144         3.593322         2.318564
 H        -2.876427        -0.140549         3.018687
 H         0.025311         0.092628         2.762680
 H        -0.884712        -1.306038         1.974418
