19
Iteration:  1649charge 0 multiplicity 1
 O         0.727563         0.217659         0.134460
 C        -0.605552         0.430887         0.651776
 C        -1.790808         0.033160        -0.088046
 C        -2.527109         0.903830         1.020088
 C        -1.224157         1.865829         0.937905
 C        -1.112238         2.545957         2.251139
 O        -1.885704         1.676729         3.258261
 C        -2.204136         0.581763         2.452759
 C        -0.792885        -0.143902         2.141420
 H         0.558566        -0.619748        -0.534611
 H        -1.832987         0.417238        -1.125960
 H        -2.003092        -1.007291        -0.133577
 H        -3.482459         1.332596         0.787015
 H        -1.185218         2.650382         0.169141
 H        -0.104722         2.490839         2.670482
 H        -1.369626         3.576014         2.439020
 H        -2.841877        -0.090678         3.033322
 H        -0.092821         0.070144         2.968861
 H        -0.925479        -1.228992         2.055808
