19
Iteration:  1890charge 0 multiplicity 1
 O         0.728758         0.451341         0.144011
 C        -0.549029         0.406613         0.734505
 C        -1.930361        -0.081113         0.014356
 C        -2.556990         1.011212         0.988285
 C        -1.233208         1.773001         0.896379
 C        -1.045589         2.448412         2.173887
 O        -1.834404         1.766204         3.164352
 C        -2.199804         0.513064         2.450820
 C        -0.829857        -0.224184         2.156779
 H         1.136206        -0.521400         0.266504
 H        -2.063472         0.375679        -1.065382
 H        -2.292589        -1.096540         0.254153
 H        -3.645037         1.255258         0.898124
 H        -0.957483         2.364425        -0.000329
 H         0.027716         2.395921         2.458497
 H        -1.351848         3.488534         2.241631
 H        -2.811738        -0.126175         3.148765
 H        -0.097618         0.025117         2.888971
 H        -1.009069        -1.284774         2.006003
