19
Iteration:  4440
 O         0.640386         0.092068         0.137892
 C        -0.560184         0.424404         0.733756
 C        -1.780857         0.052304        -0.000475
 C        -2.520585         1.033766         0.982228
 C        -1.269005         1.945885         0.971339
 C        -1.231980         2.564714         2.339966
 O        -1.847959         1.706638         3.222647
 C        -2.150772         0.499623         2.370534
 C        -0.726561        -0.287797         2.057914
 H         1.017086         0.558603        -0.714974
 H        -1.606931         0.508451        -0.977783
 H        -1.902199        -1.091333         0.062499
 H        -3.447121         1.499706         0.819820
 H        -1.086157         2.435656        -0.016663
 H        -0.233998         2.891060         2.667979
 H        -1.736622         3.592874         2.323274
 H        -2.924049        -0.028484         2.881013
 H         0.066694        -0.057570         2.862541
 H        -0.843626        -1.382865         1.881366
