19
Iteration:   356charge 0 multiplicity 1
 O         0.660297         0.294964         0.182708
 C        -0.596702         0.454173         0.797656
 C        -1.773959         0.131180        -0.043924
 C        -2.539212         1.034493         0.984564
 C        -1.227786         1.826900         0.926663
 C        -1.018113         2.512230         2.153884
 O        -1.802591         1.723534         3.157410
 C        -2.201627         0.468924         2.404665
 C        -0.941877        -0.415330         2.148749
 H         1.235092        -0.078243         0.759777
 H        -1.654178         0.530405        -0.988682
 H        -2.035124        -0.952214         0.051908
 H        -3.505324         1.471703         0.810353
 H        -1.086987         2.439326         0.043828
 H         0.049045         2.642539         2.467947
 H        -1.538876         3.615124         2.232086
 H        -3.010712         0.112008         2.945978
 H        -0.221735        -0.285912         2.950051
 H        -1.257323        -1.432004         1.829091
