19
Iteration:  3275charge 0 multiplicity 1
 O         0.690821         0.316949         0.206436
 C        -0.582188         0.413588         0.744647
 C        -1.924051        -0.104935         0.091117
 C        -2.569378         0.984737         0.995406
 C        -1.298366         1.816057         0.844770
 C        -1.103807         2.554169         2.218864
 O        -1.819333         1.713896         3.093106
 C        -2.130452         0.510419         2.408137
 C        -0.737871        -0.159411         2.093970
 H         1.441151         0.145383         0.876090
 H        -1.893803         0.292301        -0.943954
 H        -2.383598        -1.175490         0.104719
 H        -3.545524         1.426136         0.890778
 H        -1.124424         2.408635         0.001673
 H         0.001928         2.513616         2.370867
 H        -1.491311         3.581157         2.205408
 H        -2.824059        -0.092455         2.956272
 H         0.082251         0.014160         2.891760
 H        -0.949397        -1.271194         2.099013
