19
Iteration:  4675charge 0 multiplicity 1
 O         0.744631         0.292485         0.297867
 C        -0.564523         0.452949         0.703498
 C        -1.842948         0.084816        -0.076473
 C        -2.600740         0.959908         0.937880
 C        -1.321124         1.857860         0.861530
 C        -1.036511         2.556829         2.218390
 O        -1.755588         1.612246         3.242030
 C        -2.142585         0.507795         2.498692
 C        -0.921659        -0.268890         2.076099
 H         0.797935         0.101393        -0.579460
 H        -1.922679         0.445781        -1.092484
 H        -2.030305        -0.902705        -0.065301
 H        -3.554344         1.503359         0.793194
 H        -1.257477         2.491231        -0.009932
 H         0.004730         2.549853         2.545931
 H        -1.506273         3.544195         2.353942
 H        -2.903166         0.023928         3.049492
 H        -0.065101        -0.157424         2.752230
 H        -1.115439        -1.383765         2.002455
