19
Iteration:  1454
 O         0.727441         0.254295         0.213823
 C        -0.579121         0.408058         0.645710
 C        -1.915244         0.026713        -0.026080
 C        -2.562689         0.953221         1.047468
 C        -1.213644         1.859950         0.927113
 C        -1.033181         2.459173         2.251577
 O        -1.865522         1.704368         3.198591
 C        -2.191464         0.452310         2.397666
 C        -0.808717        -0.111904         1.999939
 H         1.255349         0.136639         1.023252
 H        -2.009762         0.491256        -0.987923
 H        -2.362585        -0.971439         0.034383
 H        -3.412089         1.492912         0.749080
 H        -1.262748         2.648898         0.147061
 H        -0.047589         2.479425         2.743028
 H        -1.479743         3.470955         2.142329
 H        -2.818750        -0.126146         3.044377
 H         0.017607         0.181943         2.612325
 H        -0.915698        -1.208412         1.982388
