19
Iteration:  2725
 O         0.696071         0.276766         0.159287
 C        -0.598222         0.494397         0.719575
 C        -1.827044        -0.027973        -0.036922
 C        -2.524374         0.870009         1.096569
 C        -1.297114         1.859437         0.826033
 C        -1.122554         2.597661         2.229882
 O        -1.899570         1.755837         3.120579
 C        -2.088682         0.538902         2.496868
 C        -0.748847        -0.255100         2.180823
 H         0.812974        -0.608987        -0.258091
 H        -1.889838         0.306322        -1.124956
 H        -2.071357        -1.098467        -0.072169
 H        -3.551210         1.031112         1.034308
 H        -1.123809         2.488470        -0.116550
 H        -0.049321         2.636461         2.525098
 H        -1.511572         3.567084         2.319115
 H        -2.815737         0.049008         3.108218
 H        -0.008913         0.043388         2.896414
 H        -0.947332        -1.347292         2.072309
