19
Iteration:  2688
 O         0.677571         0.418595         0.154036
 C        -0.585465         0.368923         0.710299
 C        -1.951293        -0.148821        -0.009071
 C        -2.538941         0.975551         0.978216
 C        -1.244389         1.838343         0.817929
 C        -1.042905         2.479939         2.234477
 O        -1.904783         1.728257         3.169487
 C        -2.102221         0.544165         2.472375
 C        -0.741379        -0.124565         2.179807
 H         0.944807        -0.588283         0.140778
 H        -1.983523         0.106777        -1.045330
 H        -2.090873        -1.241880         0.194893
 H        -3.642113         1.267447         0.955101
 H        -1.115182         2.377857        -0.085530
 H        -0.023261         2.416869         2.572836
 H        -1.407816         3.601375         2.392484
 H        -2.939966         0.023101         2.907465
 H         0.018932         0.254583         2.903718
 H        -0.543628        -1.250742         2.289032
