19
Iteration:  3015
 O         0.693704         0.197942         0.197574
 C        -0.599815         0.476576         0.686547
 C        -1.811047        -0.074882         0.004383
 C        -2.537106         0.920312         0.965249
 C        -1.268061         1.883320         0.868085
 C        -1.146764         2.600678         2.284298
 O        -1.838649         1.738328         3.210360
 C        -2.157806         0.495271         2.467802
 C        -0.734556        -0.147321         2.084993
 H         0.619957        -0.593746        -0.293034
 H        -1.903745         0.210699        -1.001059
 H        -1.937929        -1.105926         0.242450
 H        -3.497041         1.466355         0.774435
 H        -1.341387         2.520106        -0.070474
 H        -0.079588         2.846605         2.418528
 H        -1.716964         3.522886         2.301170
 H        -2.999831        -0.106521         2.865549
 H         0.044170         0.100583         2.829825
 H        -0.697434        -1.177838         2.088356
