19
Iteration:   931
 O         0.623400         0.293707         0.118735
 C        -0.645043         0.435530         0.743600
 C        -1.864799         0.004902        -0.035054
 C        -2.449059         1.087159         1.030179
 C        -1.159022         1.846345         0.881963
 C        -1.042394         2.483025         2.302381
 O        -1.893251         1.680746         3.131075
 C        -2.144903         0.491062         2.400056
 C        -0.842992        -0.262347         2.150649
 H         1.206069        -0.012149         0.878665
 H        -1.772037         0.407670        -1.076928
 H        -2.373783        -1.017981         0.012642
 H        -3.455827         1.552734         0.861042
 H        -1.115849         2.490355        -0.053547
 H         0.058236         2.468479         2.625039
 H        -1.375881         3.457205         2.196685
 H        -2.911341        -0.085436         2.866062
 H        -0.097870         0.020066         2.927124
 H        -0.963205        -1.390229         2.089326
