19
Iteration:  1759
 O         0.675040         0.330378         0.106721
 C        -0.611975         0.387050         0.751571
 C        -1.937865        -0.035893         0.027252
 C        -2.500991         0.983463         1.040415
 C        -1.213078         1.791762         0.926818
 C        -1.043203         2.504621         2.202545
 O        -1.903186         1.729056         3.144669
 C        -2.117922         0.557725         2.430239
 C        -0.811507        -0.239750         2.125213
 H         1.319735         0.606601         0.745741
 H        -1.949715         0.381068        -1.082220
 H        -2.040520        -1.144584         0.075404
 H        -3.488189         1.435308         0.813108
 H        -0.963001         2.334918        -0.004113
 H         0.058130         2.566942         2.609871
 H        -1.548363         3.457973         2.178106
 H        -2.955104        -0.005724         2.967906
 H         0.040937        -0.142301         2.749480
 H        -0.884831        -1.319524         1.886959
