19
Iteration:  1920
 O         0.713715         0.267151         0.210494
 C        -0.590582         0.360148         0.712690
 C        -1.925443        -0.003261        -0.020931
 C        -2.561363         0.980095         1.063593
 C        -1.242722         1.857118         0.903801
 C        -1.119162         2.592699         2.244267
 O        -1.860750         1.761628         3.125344
 C        -2.108207         0.458545         2.452414
 C        -0.760511        -0.189807         2.044466
 H         0.995177        -0.601259         0.529495
 H        -2.002228         0.488474        -1.045604
 H        -2.346992        -0.971403        -0.116298
 H        -3.649709         1.117150         1.009912
 H        -1.049567         2.385326        -0.068079
 H        -0.047643         2.590413         2.450706
 H        -1.602846         3.688160         2.157410
 H        -2.606847        -0.221672         3.138628
 H         0.106296         0.210007         2.733357
 H        -0.642674        -1.297669         2.046571
