19
Iteration:  1092
 O         0.736180         0.307268         0.122999
 C        -0.598657         0.386632         0.699546
 C        -1.900918         0.000204        -0.042022
 C        -2.447506         0.989801         0.963653
 C        -1.271852         1.877019         0.957531
 C        -1.071900         2.611652         2.288151
 O        -1.799685         1.654029         3.169690
 C        -2.189044         0.521183         2.426510
 C        -0.926024        -0.318523         2.127969
 H         1.329149        -0.308715         0.654903
 H        -1.897680         0.468195        -1.080784
 H        -2.104267        -1.007861        -0.024458
 H        -3.466616         1.430752         0.703197
 H        -1.077625         2.597390         0.091033
 H         0.017171         2.658762         2.562166
 H        -1.647075         3.609170         2.514561
 H        -3.062115         0.239691         3.040099
 H        -0.106667         0.003842         2.766594
 H        -0.990507        -1.380672         2.043058
