19
Iteration:  3612charge 0 multiplicity 1
 O         0.659572         0.258945         0.079693
 C        -0.520690         0.432641         0.800165
 C        -1.827980        -0.047712         0.026989
 C        -2.601397         0.925130         0.933228
 C        -1.261805         1.766566         0.952224
 C        -1.132823         2.553667         2.201046
 O        -1.783633         1.757160         3.166500
 C        -2.193043         0.564826         2.455604
 C        -0.789627        -0.157472         2.120769
 H         1.179727        -0.265881         0.588951
 H        -1.806834         0.286974        -0.998996
 H        -1.952507        -1.100610         0.127300
 H        -3.653195         1.187926         0.715309
 H        -1.072751         2.449788        -0.000986
 H        -0.168702         2.938960         2.425274
 H        -1.804828         3.536281         2.105267
 H        -2.732169        -0.023324         3.184232
 H        -0.053762         0.081634         2.918129
 H        -0.915825        -1.289866         2.125448
