19
Iteration:   610
 O         0.673228         0.102786         0.078070
 C        -0.541639         0.461397         0.717377
 C        -1.824263         0.060296        -0.005321
 C        -2.544945         1.077560         0.980358
 C        -1.230697         1.942947         0.942421
 C        -1.066358         2.576440         2.231435
 O        -1.903592         1.694671         3.245480
 C        -2.176022         0.462686         2.395226
 C        -0.839703        -0.288529         2.125050
 H         1.481615         0.333700         0.721697
 H        -1.711881         0.349444        -1.086005
 H        -2.130331        -0.998303         0.070102
 H        -3.615449         1.445422         0.773355
 H        -1.125411         2.564170         0.016950
 H        -0.018227         2.462019         2.697700
 H        -1.369978         3.696258         2.371927
 H        -3.093140        -0.101310         2.863395
 H        -0.151388        -0.182444         2.992188
 H        -0.795407        -1.336775         1.773742
