19
Iteration:   569charge 0 multiplicity 1
 O         0.657077         0.134069         0.027922
 C        -0.555398         0.374028         0.782059
 C        -1.919191         0.100194        -0.012175
 C        -2.515654         1.091009         0.963952
 C        -1.153366         1.853052         0.917262
 C        -1.033274         2.514802         2.334947
 O        -2.049874         1.714130         3.168649
 C        -2.201421         0.494246         2.380535
 C        -0.653368        -0.259614         2.160463
 H         1.396568         0.277176         0.573368
 H        -1.892145         0.454730        -1.106343
 H        -2.251891        -0.905960        -0.083654
 H        -3.454447         1.634740         0.953984
 H        -1.037967         2.560243         0.096840
 H        -0.079181         2.529801         2.726330
 H        -1.355228         3.636221         2.302801
 H        -2.946516        -0.160826         2.911505
 H         0.013033         0.237418         2.905666
 H        -0.630826        -1.346345         2.255985
