19
Iteration:  3358charge 0 multiplicity 1
 O         0.632393         0.215298         0.072824
 C        -0.539521         0.426248         0.725438
 C        -1.901110        -0.112851         0.102409
 C        -2.519637         0.931046         0.997218
 C        -1.179755         1.811641         0.867321
 C        -1.112192         2.569269         2.294354
 O        -1.950027         1.767747         3.132457
 C        -2.108931         0.532423         2.395315
 C        -0.726335        -0.147407         2.096683
 H         1.385456         0.507943         0.728253
 H        -2.031135         0.147987        -0.916893
 H        -2.261329        -1.091086         0.329716
 H        -3.584908         1.143375         0.801210
 H        -0.962581         2.576217        -0.014726
 H        -0.101864         2.683915         2.698996
 H        -1.454970         3.660497         2.279219
 H        -2.868688        -0.028544         3.013993
 H        -0.115473         0.275742         2.853547
 H        -0.771157        -1.224335         2.200493
