19
Iteration:  2439charge 0 multiplicity 1
 O         0.745207         0.256191         0.060931
 C        -0.577704         0.420946         0.769930
 C        -1.920575        -0.122895         0.064594
 C        -2.557858         1.027665         1.083294
 C        -1.255377         1.836849         0.857541
 C        -1.150021         2.534799         2.214694
 O        -1.853508         1.716707         3.113642
 C        -2.128641         0.501370         2.416975
 C        -0.766639        -0.157056         2.110349
 H         1.351068         0.446801         0.818230
 H        -1.848888         0.214787        -0.931121
 H        -2.077152        -1.194729         0.223105
 H        -3.617206         1.507420         1.099130
 H        -1.191506         2.438407        -0.115330
 H        -0.113635         2.633034         2.685494
 H        -1.595521         3.481195         2.261108
 H        -2.893026         0.002145         3.001642
 H        -0.039876         0.170090         2.760569
 H        -0.854334        -1.259465         2.197998
