19
Iteration:  4213
 O         0.618886         0.322871         0.200193
 C        -0.589581         0.469272         0.776273
 C        -1.852269        -0.029561        -0.040260
 C        -2.496106         0.955452         0.933068
 C        -1.221073         1.851039         0.923927
 C        -0.973547         2.399700         2.295406
 O        -1.889517         1.719620         3.113710
 C        -2.180463         0.505466         2.467776
 C        -0.834391        -0.205710         2.140694
 H         0.716773         0.996252        -0.478165
 H        -1.732495         0.326540        -1.116337
 H        -2.159832        -1.081125        -0.053621
 H        -3.445672         1.257871         0.612205
 H        -1.200054         2.472684        -0.030568
 H         0.073309         2.149549         2.541140
 H        -1.083590         3.624064         2.437788
 H        -2.898963        -0.015861         3.088277
 H        -0.035380         0.008485         2.942473
 H        -1.032512        -1.259261         2.090177
