19
Iteration:  4450
 O         0.676839         0.096644         0.174836
 C        -0.527883         0.509410         0.756406
 C        -1.779866         0.082745        -0.007040
 C        -2.503950         1.016214         0.990426
 C        -1.269115         1.938684         0.905585
 C        -1.124211         2.582868         2.289731
 O        -1.884319         1.690570         3.207249
 C        -2.119658         0.393093         2.427923
 C        -0.829816        -0.238456         2.064861
 H         0.555375         0.574235        -0.724857
 H        -1.965442         0.302631        -1.059049
 H        -2.106567        -1.035559        -0.067683
 H        -3.500836         1.334106         0.859353
 H        -1.127920         2.701635         0.104185
 H        -0.165121         2.571240         2.745288
 H        -1.724533         3.592821         2.158044
 H        -2.811630        -0.180388         2.980994
 H        -0.117401        -0.064958         2.943880
 H        -0.752514        -1.302808         1.833062
