19
Iteration:  2600
 O         0.719545         0.200433         0.146346
 C        -0.565553         0.398685         0.685727
 C        -1.944158         0.011083         0.067859
 C        -2.466521         1.010215         0.980417
 C        -1.304874         1.867652         0.853803
 C        -1.188572         2.548391         2.195583
 O        -1.868035         1.671490         3.150467
 C        -2.063985         0.476245         2.464874
 C        -0.733579        -0.141201         2.088078
 H         1.390066         0.432842         0.840212
 H        -2.069121         0.331115        -0.922748
 H        -2.293063        -1.004492         0.378930
 H        -3.526922         1.263813         1.143834
 H        -1.278058         2.562344         0.085059
 H        -0.195291         2.704378         2.522781
 H        -1.759882         3.569535         2.144302
 H        -2.787875        -0.150619         3.008778
 H        -0.035603         0.094131         2.960052
 H        -0.753752        -1.302371         2.056496
