19
Iteration:  1728charge 0 multiplicity 1
 O         0.766934         0.205269         0.152552
 C        -0.620944         0.435129         0.756789
 C        -1.910788        -0.009143        -0.056293
 C        -2.568952         0.926776         1.010014
 C        -1.320759         1.865873         0.905159
 C        -0.964195         2.511633         2.241114
 O        -1.869964         1.713642         3.124988
 C        -2.152952         0.533640         2.470843
 C        -0.819587        -0.187420         2.145477
 H         1.181820         1.166477         0.270395
 H        -1.990639         0.534650        -0.995787
 H        -2.000190        -1.094984        -0.074458
 H        -3.689367         1.225876         0.894438
 H        -1.286667         2.470697        -0.024626
 H         0.107582         2.391926         2.492342
 H        -1.384173         3.547597         2.454917
 H        -2.952964        -0.053303         3.092230
 H        -0.016713         0.029117         2.810971
 H        -0.916212        -1.336216         1.973559
