19
Iteration:  5000charge 0 multiplicity 1
 O         0.712356         0.320375         0.153069
 C        -0.566210         0.463394         0.797044
 C        -1.863739        -0.115329         0.032525
 C        -2.496695         0.968616         1.058620
 C        -1.193872         1.830965         0.856242
 C        -1.185096         2.680003         2.100470
 O        -1.844658         1.738815         3.186561
 C        -2.113224         0.493923         2.459103
 C        -0.838523        -0.278382         2.143707
 H         0.891120        -0.584396         0.023159
 H        -1.934734         0.186043        -1.065935
 H        -2.169548        -1.155914         0.134126
 H        -3.511380         1.377898         0.894212
 H        -1.143198         2.338107        -0.055535
 H        -0.061325         2.897895         2.360359
 H        -1.755134         3.632117         1.988745
 H        -2.776028        -0.094693         3.004137
 H        -0.134258        -0.185848         2.959087
 H        -1.089707        -1.359267         1.968622
