19
Iteration:  1795
 O         0.618237         0.216183         0.076166
 C        -0.554898         0.418619         0.726864
 C        -1.782064        -0.004338         0.028770
 C        -2.534901         0.964329         0.970468
 C        -1.289624         1.858267         0.916611
 C        -1.137783         2.588554         2.273824
 O        -1.856057         1.681573         3.199324
 C        -2.147636         0.539516         2.449082
 C        -0.733099        -0.168269         2.119403
 H         1.024651        -0.563948         0.409765
 H        -1.752956         0.319701        -0.976764
 H        -2.009543        -1.102453         0.033427
 H        -3.528230         1.466979         0.777250
 H        -1.016234         2.487958         0.071171
 H        -0.039850         2.823075         2.535814
 H        -1.634709         3.650128         2.198177
 H        -3.039706        -0.014973         2.855633
 H        -0.002102         0.023081         2.901593
 H        -0.932357        -1.304095         1.978435
