19
Iteration:  2684charge 0 multiplicity 1
 O         0.663937         0.428071         0.149714
 C        -0.602009         0.359534         0.713633
 C        -1.945969        -0.142835         0.043799
 C        -2.522210         0.973431         0.953638
 C        -1.221833         1.839531         0.839520
 C        -1.076797         2.477794         2.242812
 O        -1.891641         1.752780         3.146497
 C        -2.085592         0.515478         2.437241
 C        -0.747727        -0.158603         2.189838
 H         1.006656        -0.459252         0.184621
 H        -2.195261         0.085157        -1.047029
 H        -2.063864        -1.206818         0.157906
 H        -3.559940         1.307869         1.002898
 H        -1.061661         2.529899        -0.032648
 H         0.007667         2.470267         2.626601
 H        -1.362225         3.489172         2.268298
 H        -2.990507        -0.069487         2.921436
 H         0.069661         0.282818         2.842568
 H        -0.678414        -1.177554         2.299984
