19
Iteration:  3621charge 0 multiplicity 1
 O         0.640813         0.295343         0.070211
 C        -0.630457         0.380968         0.710092
 C        -1.796200        -0.082551        -0.032451
 C        -2.524122         0.911400         0.968685
 C        -1.236234         1.777031         0.936878
 C        -1.119733         2.589356         2.239562
 O        -1.832731         1.818219         3.187012
 C        -2.165211         0.541415         2.481658
 C        -0.773742        -0.217437         2.171273
 H         1.221419         0.000071         0.690684
 H        -1.744481         0.123349        -1.072866
 H        -1.979643        -1.200732         0.056689
 H        -3.512341         1.276073         0.925947
 H        -1.117701         2.506184        -0.007755
 H        -0.147809         2.796087         2.620504
 H        -1.657729         3.540721         1.970628
 H        -2.996213         0.163827         3.047649
 H         0.058119         0.061472         2.831175
 H        -1.000489        -1.374100         2.122909
