19
Iteration:  3925
 O         0.711678         0.234812         0.110718
 C        -0.535794         0.453551         0.750978
 C        -1.904826        -0.035496         0.038151
 C        -2.534783         1.034840         0.932686
 C        -1.203332         1.779120         0.946068
 C        -1.061729         2.392027         2.308329
 O        -1.918244         1.752574         3.227818
 C        -2.235892         0.575176         2.405909
 C        -0.793835        -0.200066         2.076169
 H         1.043096         1.027344        -0.208292
 H        -1.856874         0.336521        -0.991622
 H        -2.256238        -1.174734         0.040532
 H        -3.547228         1.349687         0.584198
 H        -0.949606         2.493334         0.011376
 H        -0.050501         2.348093         2.764252
 H        -1.230085         3.499086         2.217163
 H        -2.890828        -0.028105         3.039005
 H        -0.011033         0.158851         2.690352
 H        -0.603198        -1.293624         1.955314
