19
Iteration:   401charge 0 multiplicity 1
 O         0.769586         0.111701         0.102619
 C        -0.490769         0.417203         0.596108
 C        -1.931781         0.080574        -0.012268
 C        -2.461573         1.076865         0.988484
 C        -1.166535         1.813851         0.950756
 C        -1.111500         2.424696         2.329899
 O        -1.966264         1.741929         3.234940
 C        -2.234329         0.536873         2.407514
 C        -0.849182        -0.168431         2.077128
 H         1.352182         0.139763         0.810956
 H        -2.138242         0.463291        -0.940011
 H        -2.217273        -1.006810         0.087335
 H        -3.398882         1.569858         0.784690
 H        -1.061159         2.547125         0.163769
 H        -0.132814         2.518451         2.818854
 H        -1.491189         3.548328         2.106540
 H        -2.870091        -0.106738         2.947712
 H        -0.079644         0.263186         2.704603
 H        -0.764549        -1.271246         2.071234
