19
Iteration:  2810
 O         0.716653         0.303856         0.173259
 C        -0.587337         0.441182         0.649273
 C        -1.925832        -0.025765        -0.030510
 C        -2.512480         0.860701         1.075448
 C        -1.291379         1.831206         0.882532
 C        -1.005590         2.506014         2.219270
 O        -1.951134         1.799242         3.102834
 C        -2.098614         0.490752         2.519712
 C        -0.786058        -0.164628         2.106986
 H         1.239516        -0.005608         0.955718
 H        -2.015463         0.454140        -1.037584
 H        -2.189283        -1.127093        -0.036664
 H        -3.539287         1.275491         0.941695
 H        -1.337800         2.443135        -0.070425
 H         0.017720         2.353810         2.416629
 H        -1.354141         3.645974         2.237912
 H        -2.620919        -0.083837         3.197218
 H        -0.103274        -0.020590         2.935381
 H        -0.756009        -1.344411         1.977522
