19
Iteration:  4889
 O         0.593159         0.267734        -0.021989
 C        -0.548116         0.439257         0.770659
 C        -1.861331        -0.058728         0.060413
 C        -2.519646         0.977750         0.970274
 C        -1.184021         1.808994         0.912865
 C        -1.026339         2.525127         2.328885
 O        -2.000978         1.734335         3.106103
 C        -2.141494         0.535685         2.363866
 C        -0.751364        -0.139140         2.258806
 H         1.346581        -0.004397         0.514313
 H        -1.847810         0.315283        -1.002027
 H        -2.137692        -1.114962         0.237830
 H        -3.524920         1.206379         0.687393
 H        -1.002337         2.297148        -0.063608
 H        -0.002402         2.300298         2.759806
 H        -1.158218         3.627689         2.382039
 H        -2.832205        -0.116379         2.933703
 H        -0.082330         0.168974         3.046799
 H        -0.751179        -1.266614         2.172229
