19
Iteration:  3556charge 0 multiplicity 1
 O         0.748742         0.371340         0.130958
 C        -0.543047         0.360148         0.687748
 C        -1.878934        -0.073452         0.020296
 C        -2.542032         0.901980         1.064573
 C        -1.214758         1.765633         0.825216
 C        -1.077220         2.542892         2.177964
 O        -1.900365         1.807931         3.192023
 C        -2.201946         0.555141         2.505085
 C        -0.819331        -0.171097         2.175327
 H         1.087261        -0.551033         0.070501
 H        -1.861385         0.397722        -0.931320
 H        -2.129019        -1.119714        -0.139052
 H        -3.559291         1.181779         0.941193
 H        -1.203911         2.290636        -0.250672
 H        -0.060533         2.614651         2.489690
 H        -1.596763         3.616698         2.122752
 H        -2.868364        -0.076879         3.049974
 H         0.015480         0.013187         2.846697
 H        -0.963791        -1.291466         2.174184
