19
Iteration:  1955charge 0 multiplicity 1
 O         0.658595         0.241115         0.002131
 C        -0.616396         0.397132         0.758008
 C        -1.764514        -0.103606         0.033319
 C        -2.503970         0.959509         1.020711
 C        -1.221374         1.905734         0.889124
 C        -1.177509         2.606724         2.275444
 O        -1.819711         1.731024         3.227257
 C        -2.157224         0.485314         2.433171
 C        -0.831623        -0.156878         2.128883
 H         1.255007        -0.539305         0.273549
 H        -1.868643         0.265290        -1.063564
 H        -2.080099        -1.140955         0.130440
 H        -3.480915         1.295131         0.637200
 H        -1.047741         2.478074        -0.022654
 H        -0.163082         2.816786         2.596956
 H        -1.572893         3.727409         2.284421
 H        -2.995643         0.032232         3.005269
 H        -0.139695         0.166685         2.926200
 H        -0.951421        -1.272256         2.109287
