19
Iteration:   204charge 0 multiplicity 1
 O         0.777235         0.200452         0.241254
 C        -0.580147         0.452863         0.728517
 C        -1.861981         0.016774        -0.091220
 C        -2.628671         0.906843         0.948696
 C        -1.189068         1.819457         0.954859
 C        -0.993919         2.530254         2.265698
 O        -1.761423         1.727451         3.182253
 C        -2.236420         0.534279         2.418628
 C        -0.991374        -0.189025         2.047407
 H         1.200266         0.987025         0.222613
 H        -2.088874         0.430088        -1.065231
 H        -2.038897        -1.129747        -0.173132
 H        -3.656851         1.305010         0.850522
 H        -1.035536         2.505615         0.094563
 H         0.062051         2.633339         2.693819
 H        -1.326956         3.477415         2.321325
 H        -3.009465         0.098446         2.996833
 H        -0.292293        -0.225643         2.896197
 H        -1.176897        -1.282339         2.128851
