19
Iteration:  2089charge 0 multiplicity 1
 O         0.677394         0.242163         0.043550
 C        -0.553834         0.420356         0.711057
 C        -1.847841        -0.098898         0.010576
 C        -2.515153         0.951813         1.031699
 C        -1.219094         1.842928         0.901985
 C        -1.145281         2.585947         2.250320
 O        -1.848517         1.764772         3.192638
 C        -2.156285         0.534532         2.470492
 C        -0.797555        -0.151215         2.143632
 H         1.053192        -0.666746         0.383800
 H        -1.844719         0.338833        -0.932629
 H        -2.027686        -1.184007        -0.083894
 H        -3.538350         1.316939         0.727338
 H        -1.290194         2.422966        -0.052217
 H        -0.107387         2.767449         2.575873
 H        -1.736163         3.628331         2.281393
 H        -2.880421         0.031828         3.133035
 H        -0.025427        -0.012313         2.853816
 H        -0.936751        -1.265613         2.107854
