19
Iteration:  3415
 O         0.658952         0.265577         0.130996
 C        -0.564278         0.462387         0.761867
 C        -1.908842        -0.115912         0.026232
 C        -2.566351         0.994111         0.999558
 C        -1.171981         1.813804         0.883355
 C        -1.096026         2.586898         2.134852
 O        -1.910155         1.711967         3.121451
 C        -2.118249         0.497582         2.496895
 C        -0.739813        -0.204422         2.155309
 H         1.264828         0.598223         0.710234
 H        -1.874356         0.089448        -1.000211
 H        -2.222962        -1.149951         0.150983
 H        -3.511926         1.492537         0.891432
 H        -1.122267         2.552558        -0.073711
 H        -0.104544         2.681368         2.581896
 H        -1.620690         3.516679         2.092346
 H        -2.814791        -0.058607         3.100618
 H        -0.065738        -0.015958         2.948386
 H        -0.818523        -1.254219         2.069443
