19
Iteration:  1983
 O         0.692853         0.367509         0.074726
 C        -0.603583         0.348089         0.778308
 C        -1.968279        -0.076998         0.033707
 C        -2.478675         1.051271         1.088313
 C        -1.168088         1.790932         0.845370
 C        -1.110575         2.531587         2.190954
 O        -1.954331         1.747091         3.113339
 C        -2.107857         0.483526         2.467862
 C        -0.700961        -0.233342         2.148055
 H         1.340912        -0.204063         0.437880
 H        -1.936325         0.331317        -0.947459
 H        -2.566116        -0.992344         0.182250
 H        -3.429453         1.586472         0.918843
 H        -1.061119         2.344414        -0.135750
 H        -0.095727         2.554324         2.705756
 H        -1.561045         3.470431         2.109056
 H        -2.893632        -0.003504         3.042669
 H        -0.018250         0.146864         2.977902
 H        -0.835078        -1.296480         2.076148
