19
Iteration:  4417charge 0 multiplicity 1
 O         0.754617         0.135548         0.117455
 C        -0.533511         0.329827         0.705256
 C        -1.944522         0.068550        -0.080320
 C        -2.467438         1.028759         0.987613
 C        -1.167296         1.927449         0.941198
 C        -1.234097         2.601454         2.313513
 O        -1.851790         1.667908         3.241033
 C        -2.105443         0.424085         2.423940
 C        -0.829937        -0.203513         2.135762
 H         0.839569         0.760054        -0.523817
 H        -2.009929         0.534890        -1.067270
 H        -2.379057        -0.999592         0.029023
 H        -3.390534         1.529155         0.855543
 H        -0.936581         2.416864        -0.009408
 H        -0.458148         3.028210         2.906446
 H        -1.839831         3.533647         2.001514
 H        -2.820516        -0.149899         2.933496
 H        -0.136416         0.164185         2.950127
 H        -0.813867        -1.296070         2.083196
