19
Iteration:  2558charge 0 multiplicity 1
 O         0.586107         0.305297        -0.052208
 C        -0.545561         0.428947         0.828237
 C        -1.750734        -0.047016         0.025398
 C        -2.491213         0.919762         1.005601
 C        -1.256495         1.812345         0.899289
 C        -1.063347         2.488354         2.238285
 O        -1.945879         1.759489         3.134100
 C        -2.137700         0.542557         2.483556
 C        -0.812602        -0.204252         2.257861
 H         1.345201         0.715624         0.205590
 H        -1.596522         0.382226        -0.981687
 H        -2.144739        -1.196722         0.056455
 H        -3.501370         1.403602         0.740144
 H        -1.283367         2.332445        -0.078866
 H         0.024003         2.385535         2.560459
 H        -1.368262         3.549442         2.280788
 H        -2.892900        -0.065776         2.916775
 H         0.058637         0.044262         2.922329
 H        -1.093929        -1.366209         2.218320
