19
Iteration:  4458
 O         0.725924         0.149441         0.196849
 C        -0.531894         0.522070         0.749930
 C        -1.871170         0.065519        -0.048534
 C        -2.502473         0.964414         1.001388
 C        -1.208562         1.909826         0.916398
 C        -1.080110         2.568681         2.258864
 O        -1.919219         1.632083         3.164260
 C        -2.140770         0.435222         2.450040
 C        -0.832389        -0.190168         2.101903
 H         0.565383         0.380439        -0.837299
 H        -1.982068         0.561227        -1.040789
 H        -2.152515        -0.966631         0.125687
 H        -3.582087         1.267508         0.893663
 H        -1.299302         2.630197         0.142895
 H        -0.009649         2.669056         2.515445
 H        -1.462636         3.632841         2.505662
 H        -2.820654        -0.209998         3.004196
 H        -0.103028        -0.027049         2.849244
 H        -0.941825        -1.247158         1.922487
