19
Iteration:   445charge 0 multiplicity 1
 O         0.619090         0.142152        -0.020244
 C        -0.484516         0.428136         0.831950
 C        -1.752733         0.046321        -0.014879
 C        -2.511120         1.002296         0.969497
 C        -1.186336         1.878994         0.966153
 C        -1.074710         2.491357         2.313423
 O        -1.911363         1.718439         3.179673
 C        -2.276625         0.528592         2.412239
 C        -0.856633        -0.205573         2.150355
 H         1.390146         0.296765         0.433867
 H        -1.641946         0.535381        -0.926062
 H        -2.086879        -1.020061        -0.106964
 H        -3.418255         1.511843         0.617752
 H        -1.084953         2.500766         0.076416
 H        -0.064613         2.455661         2.528302
 H        -1.419524         3.611409         2.311424
 H        -3.109504         0.003969         2.873866
 H        -0.228060         0.112562         2.992942
 H        -0.847969        -1.316476         2.112679
