19
Iteration:  1321
 O         0.644508         0.255074         0.026170
 C        -0.557581         0.387547         0.737014
 C        -1.866305        -0.011879         0.019203
 C        -2.518942         1.021315         0.969449
 C        -1.158038         1.859475         0.951302
 C        -1.071344         2.474549         2.344372
 O        -1.928713         1.757099         3.123175
 C        -2.165747         0.501266         2.435227
 C        -0.809541        -0.232383         2.126804
 H         1.384695         0.212424         0.554916
 H        -1.954157         0.431029        -1.071100
 H        -2.048370        -1.078406         0.054261
 H        -3.585620         1.344622         0.874382
 H        -0.806966         2.670937         0.257308
 H        -0.029679         2.579188         2.803683
 H        -1.537011         3.471454         2.300624
 H        -2.952511        -0.034658         2.954016
 H        -0.083266        -0.006214         2.930724
 H        -0.969239        -1.276172         1.956070
