19
Iteration:  2408charge 0 multiplicity 1
 O         0.598301         0.168214         0.093338
 C        -0.606613         0.473882         0.746622
 C        -1.796352        -0.102409        -0.068158
 C        -2.556627         0.855687         1.008788
 C        -1.345088         1.864779         0.904701
 C        -1.049832         2.498049         2.309354
 O        -1.910429         1.793109         3.142700
 C        -2.129151         0.542769         2.473629
 C        -0.714560        -0.072121         2.132244
 H         1.406123         0.522382         0.617919
 H        -1.618767         0.392199        -1.040497
 H        -1.841582        -1.122727        -0.225758
 H        -3.637448         1.240730         0.928812
 H        -1.381392         2.416120        -0.139967
 H         0.010856         2.293773         2.538799
 H        -1.151390         3.607653         2.389476
 H        -2.750461        -0.038876         3.135218
 H         0.142157         0.225368         2.748332
 H        -0.712534        -1.139123         2.194342
