19
Iteration:  3001
 O         0.711127         0.280112         0.221465
 C        -0.550833         0.473489         0.732336
 C        -1.849026        -0.074177         0.020703
 C        -2.563862         0.920991         1.007493
 C        -1.292053         1.843692         0.897448
 C        -1.092588         2.527621         2.184518
 O        -1.839341         1.753521         3.233354
 C        -2.122045         0.504169         2.369390
 C        -0.824946        -0.108268         2.089367
 H         0.711198        -0.625037        -0.357231
 H        -1.957049         0.202853        -1.010852
 H        -2.077528        -1.140128        -0.020485
 H        -3.663012         1.111197         0.836968
 H        -1.130758         2.434912         0.097378
 H        -0.145318         2.481852         2.594521
 H        -1.481459         3.643613         2.055517
 H        -2.724879        -0.121168         3.140678
 H         0.016261         0.179668         2.811477
 H        -0.843836        -1.238369         1.979738
