19
Iteration:  4935
 O         0.766567         0.244166         0.251388
 C        -0.542889         0.404123         0.738813
 C        -1.937057        -0.109110         0.016218
 C        -2.573616         0.896200         1.006978
 C        -1.260847         1.883807         0.879414
 C        -1.059178         2.585221         2.221945
 O        -1.907647         1.790610         3.145387
 C        -2.113263         0.515695         2.424001
 C        -0.800432        -0.203334         2.098447
 H         0.804749         0.533899        -0.625714
 H        -1.880100         0.380774        -1.039814
 H        -2.216363        -1.250752         0.088455
 H        -3.569364         1.340742         0.975106
 H        -1.113162         2.515038         0.060339
 H         0.023973         2.701237         2.488098
 H        -1.506138         3.523075         2.319944
 H        -2.732277        -0.076869         3.020262
 H         0.033883        -0.101586         2.772797
 H        -1.033531        -1.284961         1.981943
