19
Iteration:  2784
 O         0.648872         0.318987         0.112217
 C        -0.565272         0.424877         0.754740
 C        -1.819559        -0.055169         0.035372
 C        -2.531485         0.936100         0.966395
 C        -1.319355         1.842732         0.904478
 C        -1.140023         2.556497         2.222108
 O        -1.822312         1.757117         3.171119
 C        -2.113155         0.529421         2.395192
 C        -0.784817        -0.220638         2.145560
 H         1.057567        -0.560015         0.445141
 H        -1.742830         0.257930        -0.987958
 H        -2.127514        -1.083882         0.239488
 H        -3.590480         1.348488         0.896295
 H        -1.106013         2.412223         0.032239
 H        -0.035459         2.640611         2.377390
 H        -1.542724         3.478700         2.181556
 H        -2.822205        -0.094551         3.069541
 H        -0.137595        -0.014905         3.035861
 H        -0.789667        -1.251170         2.099367
