19
Iteration:  3738
 O         0.732844         0.273256         0.110026
 C        -0.570269         0.353582         0.709142
 C        -1.870294        -0.026657        -0.027475
 C        -2.546211         1.014484         0.935262
 C        -1.312497         1.823746         0.904333
 C        -1.201705         2.588543         2.255786
 O        -1.814542         1.779248         3.219068
 C        -2.136908         0.546929         2.477970
 C        -0.764122        -0.281945         2.159324
 H         1.101313        -0.556813         0.214131
 H        -1.712634         0.183818        -1.055332
 H        -2.108372        -1.131951        -0.051098
 H        -3.445420         1.560088         0.740201
 H        -0.920304         2.460821         0.164539
 H        -0.064195         2.709693         2.470051
 H        -1.701977         3.529016         2.245048
 H        -2.921903         0.037365         3.058396
 H        -0.077232        -0.002889         2.919978
 H        -0.913129        -1.339046         2.069941
