19
Iteration:  1309
 O         0.607359         0.303900         0.056915
 C        -0.585437         0.459708         0.733644
 C        -1.902301        -0.003126         0.019954
 C        -2.419602         1.009138         0.959706
 C        -1.127123         1.830523         0.937756
 C        -1.068564         2.568789         2.281230
 O        -1.948964         1.663684         3.164700
 C        -2.087064         0.514574         2.425282
 C        -0.867448        -0.302211         2.151144
 H         1.337252         0.204473         0.849628
 H        -1.823930         0.259472        -1.156273
 H        -2.405009        -0.926752         0.107527
 H        -3.360461         1.607330         0.741154
 H        -1.130100         2.303548        -0.104126
 H        -0.074620         2.659640         2.779769
 H        -1.429078         3.643508         2.140510
 H        -2.861220        -0.067294         2.969185
 H        -0.019589        -0.221757         2.909840
 H        -0.976190        -1.363728         2.120104
