19
Iteration:  3029charge 0 multiplicity 1
 O         0.739095         0.199722         0.116398
 C        -0.525459         0.375114         0.743414
 C        -1.873855        -0.035061         0.029013
 C        -2.489533         1.009072         1.002102
 C        -1.294785         1.915707         0.896621
 C        -1.237266         2.630821         2.230326
 O        -1.862243         1.682308         3.131495
 C        -2.101200         0.505459         2.449508
 C        -0.762366        -0.182550         2.196156
 H         0.726527        -0.651179        -0.421852
 H        -1.903006         0.334951        -1.071523
 H        -2.241003        -1.108358         0.042346
 H        -3.530377         1.222637         0.871355
 H        -1.134502         2.622341        -0.065700
 H        -0.234445         2.781242         2.802521
 H        -1.668110         3.586950         2.252851
 H        -2.679679         0.002804         3.159938
 H        -0.064905         0.271619         2.826522
 H        -0.777070        -1.288681         2.085874
