19
Iteration:  2645
 O         0.707089         0.320093         0.031293
 C        -0.556996         0.424254         0.731042
 C        -1.812560        -0.059046        -0.003566
 C        -2.535441         0.911784         1.032872
 C        -1.306856         1.864890         0.852950
 C        -1.161936         2.542106         2.191027
 O        -1.834283         1.784550         3.208196
 C        -2.138875         0.513344         2.472436
 C        -0.820035        -0.253094         2.218481
 H         1.336193        -0.256279         0.500603
 H        -1.895690         0.487213        -0.909258
 H        -2.042497        -1.168170         0.081098
 H        -3.581219         1.305204         0.757269
 H        -1.147475         2.512291         0.003142
 H        -0.116495         2.603701         2.414138
 H        -1.623957         3.622879         2.181718
 H        -2.834385        -0.011310         3.060759
 H         0.045546        -0.159714         2.906717
 H        -1.007560        -1.426255         2.237958
