19
Iteration:  4152charge 0 multiplicity 1
 O         0.691933         0.150294         0.245514
 C        -0.574608         0.425330         0.736020
 C        -1.816468         0.023642        -0.093039
 C        -2.505716         1.048006         1.075440
 C        -1.239095         1.922056         0.964160
 C        -1.172503         2.657637         2.235655
 O        -1.794830         1.640863         3.175192
 C        -2.173152         0.495976         2.381212
 C        -0.792304        -0.267367         2.093656
 H         0.748547         0.279917        -0.785568
 H        -1.994440         0.398449        -1.139559
 H        -1.961663        -1.051501        -0.146645
 H        -3.616212         1.221040         0.798064
 H        -1.207377         2.525657         0.080983
 H        -0.140614         2.814611         2.608702
 H        -1.763249         3.503389         2.261107
 H        -3.034360        -0.065680         2.877033
 H        -0.060572        -0.051103         2.829766
 H        -0.924590        -1.391360         2.190822
