19
Iteration:  2021charge 0 multiplicity 1
 O         0.685706         0.333462         0.198853
 C        -0.606445         0.435592         0.701143
 C        -1.836755        -0.139070        -0.008934
 C        -2.605220         0.849605         0.923276
 C        -1.389004         1.872053         0.838664
 C        -1.007371         2.482095         2.231847
 O        -1.759888         1.791054         3.211645
 C        -2.172157         0.535420         2.540107
 C        -0.837309        -0.093283         2.113064
 H         0.953322        -0.533649         0.225083
 H        -1.689601         0.203909        -1.062015
 H        -1.945853        -1.172326        -0.063182
 H        -3.500651         1.417035         0.769400
 H        -1.295516         2.504041         0.002733
 H         0.057013         2.421535         2.470528
 H        -1.212477         3.679374         2.354638
 H        -2.863323        -0.084284         3.128587
 H         0.098600        -0.001976         2.663448
 H        -0.861988        -1.217806         1.890254
