19
Iteration:   322charge 0 multiplicity 1
 O         0.741546         0.224993         0.254273
 C        -0.572541         0.412476         0.649170
 C        -1.950130         0.067492        -0.033961
 C        -2.541671         1.041813         0.921097
 C        -1.210191         1.818587         0.901830
 C        -1.060639         2.456441         2.279487
 O        -1.859148         1.696277         3.243788
 C        -2.169508         0.566273         2.369615
 C        -0.849712        -0.210449         2.056160
 H         1.185647        -0.085829         1.067083
 H        -1.988379         0.261673        -1.110956
 H        -2.264399        -0.960314         0.113594
 H        -3.529094         1.515482         0.855780
 H        -0.949294         2.560650         0.123868
 H        -0.024428         2.555805         2.614913
 H        -1.552707         3.545918         2.071274
 H        -2.813324        -0.057473         2.944757
 H         0.046218        -0.085314         2.671923
 H        -0.871573        -1.313550         1.970112
