19
Iteration:  1985
 O         0.697452         0.368006         0.085206
 C        -0.606775         0.344571         0.771188
 C        -1.975572        -0.068331         0.049125
 C        -2.474757         1.036283         1.093323
 C        -1.178889         1.802630         0.838291
 C        -1.095597         2.522880         2.180462
 O        -1.953420         1.753031         3.109105
 C        -2.104125         0.464069         2.468288
 C        -0.715171        -0.223988         2.148516
 H         1.334779        -0.184749         0.415383
 H        -1.944889         0.383634        -0.969939
 H        -2.494374        -0.974295         0.171512
 H        -3.412191         1.618298         0.927589
 H        -1.045928         2.350221        -0.146808
 H        -0.107321         2.481576         2.701019
 H        -1.608048         3.570840         2.119647
 H        -2.921698        -0.039525         3.007036
 H         0.051484         0.162227         2.991008
 H        -0.841783        -1.330966         2.091947
