19
Iteration:  1271
 O         0.703460         0.188183         0.154026
 C        -0.603032         0.485826         0.746640
 C        -1.858208         0.071940        -0.099018
 C        -2.549646         0.917827         0.964148
 C        -1.232988         1.859990         0.907499
 C        -1.090148         2.595431         2.249352
 O        -1.746661         1.643495         3.189179
 C        -2.174490         0.506738         2.441336
 C        -0.870209        -0.190505         2.102380
 H         1.269430         0.023578         1.009099
 H        -1.896117         0.468872        -1.013078
 H        -2.124758        -1.021836        -0.024481
 H        -3.486346         1.360671         0.735089
 H        -1.457781         2.495840         0.092004
 H        -0.076513         2.639156         2.592973
 H        -1.683412         3.549904         2.448759
 H        -2.822869        -0.068881         3.105346
 H        -0.140014         0.037518         2.866462
 H        -1.234020        -1.253080         1.955175
