19
Iteration:  2077charge 0 multiplicity 1
 O         0.666409         0.322689         0.091318
 C        -0.577066         0.327652         0.728640
 C        -1.913741        -0.044843        -0.001224
 C        -2.474807         0.947285         1.021704
 C        -1.191498         1.790082         0.850669
 C        -1.154709         2.599900         2.243866
 O        -1.885993         1.786803         3.184551
 C        -2.103610         0.569530         2.481408
 C        -0.749070        -0.275598         2.165556
 H         1.224629        -0.551095         0.179716
 H        -2.000483         0.285900        -0.995244
 H        -2.220396        -1.042624         0.105066
 H        -3.416679         1.477506         1.151137
 H        -1.032479         2.494343         0.035438
 H        -0.228210         2.957305         2.670447
 H        -1.835209         3.553799         1.880666
 H        -2.955418         0.007392         2.896049
 H         0.059879        -0.027403         2.767377
 H        -1.000902        -1.362298         2.021110
