19
Iteration:  2826
 O         0.762241         0.319371         0.127681
 C        -0.576156         0.412245         0.707946
 C        -1.930236        -0.050920         0.006079
 C        -2.577935         0.968309         1.043630
 C        -1.275756         1.770203         0.875872
 C        -1.072394         2.442314         2.205259
 O        -1.882142         1.786925         3.144660
 C        -2.150014         0.487565         2.421612
 C        -0.764070        -0.160664         2.157501
 H         1.410443         0.433406         0.744695
 H        -2.098756         0.374636        -0.998065
 H        -2.178812        -1.093315         0.091156
 H        -3.582156         1.372951         0.956064
 H        -1.309032         2.442251         0.056665
 H        -0.018475         2.410880         2.681383
 H        -1.262529         3.525291         2.151896
 H        -3.033653        -0.095965         2.927773
 H         0.163449         0.218902         2.698759
 H        -0.908593        -1.209786         2.323983
