19
Iteration:  4267charge 0 multiplicity 1
 O         0.672228         0.142962         0.242082
 C        -0.579239         0.451244         0.757288
 C        -1.858472         0.079804        -0.025141
 C        -2.545243         1.048727         1.012813
 C        -1.210965         1.903822         0.926549
 C        -1.183694         2.576307         2.305976
 O        -1.879757         1.669613         3.201635
 C        -2.091108         0.475884         2.360779
 C        -0.732353        -0.245554         2.037380
 H         0.670066         0.035502        -0.742064
 H        -1.735162         0.405400        -1.023355
 H        -2.103507        -0.956057        -0.218790
 H        -3.558104         1.338509         0.976918
 H        -0.986967         2.518571        -0.050196
 H        -0.176549         2.777589         2.609653
 H        -1.761294         3.500294         2.069015
 H        -2.771310        -0.230492         2.826961
 H         0.023159        -0.030806         2.877490
 H        -0.761164        -1.335756         2.091863
