19
Iteration:  4540
 O         0.639477         0.266513         0.114515
 C        -0.597720         0.440140         0.702462
 C        -1.852222         0.024945        -0.088005
 C        -2.520925         1.056629         0.977579
 C        -1.185777         1.835835         0.885857
 C        -1.085249         2.573910         2.334056
 O        -1.838521         1.612761         3.226206
 C        -2.142125         0.516261         2.448057
 C        -0.813590        -0.249457         2.110271
 H         1.272936         0.031013         0.827544
 H        -1.992685         0.510971        -1.058810
 H        -2.191764        -1.025444        -0.250195
 H        -3.507828         1.490037         0.828465
 H        -1.206882         2.518169         0.006650
 H        -0.099489         2.664750         2.774975
 H        -1.697549         3.511026         2.290208
 H        -2.962582        -0.082598         2.945855
 H         0.045821        -0.209759         2.834777
 H        -0.996783        -1.348210         1.916892
