19
Iteration:   290
 O         0.615865         0.153309         0.027602
 C        -0.521694         0.408325         0.786319
 C        -1.801326         0.064738         0.022670
 C        -2.521406         0.980292         0.896714
 C        -1.205457         1.919663         0.957120
 C        -1.062049         2.480283         2.370009
 O        -1.922230         1.720154         3.107550
 C        -2.182503         0.543222         2.364728
 C        -0.813085        -0.197990         2.201758
 H         1.379140        -0.087098         0.702309
 H        -1.833532         0.399917        -1.002070
 H        -2.162382        -0.995345        -0.078293
 H        -3.582819         1.259456         0.808157
 H        -1.066353         2.598833         0.096041
 H         0.022929         2.508300         2.733614
 H        -1.305579         3.670206         2.388005
 H        -2.982431        -0.005854         2.795259
 H        -0.199435         0.113163         3.073312
 H        -0.976289        -1.312620         2.133843
