19
Iteration:  3061
 O         0.686956         0.324302         0.092111
 C        -0.588945         0.339594         0.751579
 C        -1.821655        -0.072381        -0.015517
 C        -2.443297         0.978310         1.008251
 C        -1.134198         1.803284         0.931477
 C        -1.190363         2.589454         2.201880
 O        -1.945639         1.774271         3.152136
 C        -2.176438         0.526338         2.556880
 C        -0.769127        -0.221678         2.132432
 H         0.572241        -0.531438        -0.480812
 H        -1.930253         0.450520        -0.990255
 H        -2.070353        -1.127075         0.051364
 H        -3.437426         1.361424         0.873841
 H        -1.240896         2.506246        -0.065782
 H        -0.193790         2.762675         2.791060
 H        -1.608018         3.501729         1.942087
 H        -2.715688        -0.048316         3.252969
 H         0.020228         0.041198         2.779374
 H        -0.663012        -1.295355         2.149912
