19
Iteration:  4300
 O         0.754370         0.115747         0.119763
 C        -0.566608         0.478410         0.706347
 C        -1.846799         0.032100        -0.065254
 C        -2.533745         0.982686         1.026776
 C        -1.213662         1.922933         0.924068
 C        -1.212161         2.530664         2.303130
 O        -1.833957         1.671342         3.213509
 C        -2.130121         0.564573         2.408790
 C        -0.835299        -0.260218         2.149918
 H         0.969142         0.672314        -0.556566
 H        -1.819044         0.579845        -0.945940
 H        -1.973591        -1.034090        -0.075177
 H        -3.569890         1.179411         0.951044
 H        -1.052185         2.579736        -0.028377
 H        -0.292066         2.856189         2.793712
 H        -1.687307         3.442540         2.112477
 H        -2.829317        -0.068658         2.964835
 H        -0.156330        -0.006135         3.029413
 H        -1.144769        -1.308096         1.994218
