19
Iteration:  3918charge 0 multiplicity 1
 O         0.668228         0.215287         0.104222
 C        -0.547253         0.499076         0.763521
 C        -1.824087        -0.056915         0.074500
 C        -2.528378         1.003323         0.948151
 C        -1.161573         1.841926         0.916291
 C        -1.082541         2.444282         2.279722
 O        -1.885415         1.733186         3.229061
 C        -2.231755         0.538111         2.391932
 C        -0.844339        -0.211392         2.071384
 H         1.088340         1.013392        -0.055713
 H        -1.866929         0.303372        -1.000010
 H        -2.186369        -1.158624        -0.024640
 H        -3.549409         1.389912         0.808205
 H        -1.071858         2.543517         0.075251
 H         0.032329         2.169768         2.491662
 H        -1.375477         3.455302         2.339404
 H        -3.041410         0.102030         2.996921
 H        -0.160630         0.056591         2.954274
 H        -0.651473        -1.247269         1.752696
