19
Iteration:   902charge 0 multiplicity 1
 O         0.735475         0.157605         0.018082
 C        -0.595299         0.421279         0.714173
 C        -1.849291        -0.010362         0.001262
 C        -2.522102         1.039365         0.982659
 C        -1.172328         1.852064         0.898906
 C        -1.066208         2.525568         2.418206
 O        -1.898212         1.725903         3.210980
 C        -2.239530         0.566906         2.413707
 C        -0.822461        -0.266397         2.110706
 H         1.282306         0.651759         0.533400
 H        -1.766399         0.450414        -0.913384
 H        -2.332757        -1.013678        -0.118402
 H        -3.524340         1.486738         0.612742
 H        -1.154457         2.445835        -0.045969
 H        -0.012570         2.458371         2.743810
 H        -1.470384         3.616516         2.277720
 H        -3.023466         0.004990         2.978335
 H        -0.139427         0.048462         2.879208
 H        -0.942125        -1.324449         1.923415
