19
Iteration:  2064
 O         0.690493         0.391050         0.125662
 C        -0.576578         0.310708         0.759230
 C        -1.994030        -0.031677         0.069836
 C        -2.488293         1.049008         1.024766
 C        -1.136656         1.763290         0.937874
 C        -1.171627         2.626825         2.129339
 O        -1.899441         1.768023         3.133876
 C        -2.054439         0.475854         2.452312
 C        -0.766888        -0.312595         2.123569
 H         1.043660        -0.469573         0.122650
 H        -2.034264         0.289816        -1.013372
 H        -2.387059        -0.958747         0.104724
 H        -3.447004         1.436345         0.799025
 H        -0.974661         2.219075        -0.010316
 H        -0.170324         2.857516         2.507424
 H        -1.785223         3.652380         2.043530
 H        -2.712621        -0.065356         3.151479
 H         0.029267        -0.158898         2.890692
 H        -0.849762        -1.408347         2.300017
