19
Iteration:  3208charge 0 multiplicity 1
 O         0.679847         0.110673         0.059144
 C        -0.562730         0.455025         0.743540
 C        -1.900887        -0.030583         0.004357
 C        -2.427229         0.963467         1.077536
 C        -1.184340         1.863846         0.892441
 C        -1.147008         2.585094         2.227629
 O        -1.976374         1.771302         3.143472
 C        -2.131181         0.442069         2.447397
 C        -0.734559        -0.122929         2.161657
 H         1.320987         0.693950         0.487168
 H        -2.120407         0.441807        -0.960832
 H        -2.361060        -1.113370        -0.085982
 H        -3.482467         1.166714         0.792036
 H        -1.104125         2.416719        -0.045952
 H        -0.143551         2.607244         2.701301
 H        -1.669027         3.509880         2.285238
 H        -2.939986        -0.098743         3.027451
 H        -0.040123         0.107932         3.043167
 H        -0.556559        -1.211319         1.869038
