19
Iteration:  2581charge 0 multiplicity 1
 O         0.668314         0.246534         0.021145
 C        -0.575245         0.416238         0.716251
 C        -1.853655        -0.123256         0.018203
 C        -2.563595         0.942346         1.010405
 C        -1.187396         1.836440         0.930197
 C        -1.128823         2.601941         2.297155
 O        -1.886789         1.771992         3.178268
 C        -2.180884         0.514935         2.442283
 C        -0.730386        -0.214861         2.127411
 H         1.390245         0.787077         0.559486
 H        -1.963073         0.250649        -1.047666
 H        -2.024734        -1.295854         0.147124
 H        -3.594601         1.395785         0.748905
 H        -1.042553         2.426492        -0.047974
 H        -0.042305         2.730847         2.630141
 H        -1.593848         3.562959         2.251960
 H        -2.852820        -0.075613         2.969403
 H        -0.169393         0.110487         3.001195
 H        -0.868639        -1.368390         2.101678
