19
Iteration:  2327
 O         0.738406         0.146090         0.114846
 C        -0.564782         0.449171         0.700177
 C        -1.771292        -0.000917        -0.028540
 C        -2.625783         0.933248         1.079105
 C        -1.413449         1.885740         0.917700
 C        -1.155423         2.580840         2.173768
 O        -1.779013         1.746786         3.173778
 C        -2.108023         0.509677         2.454342
 C        -0.808718        -0.196892         2.143965
 H         1.462469         0.231514         0.796744
 H        -1.944156         0.691029        -0.862569
 H        -1.993882        -1.144492        -0.198683
 H        -3.684848         1.260128         0.979743
 H        -1.376786         2.378540        -0.044292
 H        -0.039392         2.670803         2.474570
 H        -1.567149         3.503248         1.893845
 H        -2.712283        -0.121866         3.144955
 H        -0.094622         0.136403         2.868097
 H        -0.923693        -1.315659         2.053917
