19
Iteration:   738charge 0 multiplicity 1
 O         0.646720         0.264373         0.078692
 C        -0.555385         0.402868         0.749136
 C        -1.785571         0.058467         0.052906
 C        -2.508477         1.040132         1.007640
 C        -1.169043         1.824216         0.990532
 C        -1.059317         2.515647         2.304888
 O        -1.946833         1.735766         3.128411
 C        -2.192256         0.529625         2.375232
 C        -0.810905        -0.275222         2.089462
 H         0.737437        -0.698250        -0.111726
 H        -1.746687         0.341099        -0.992636
 H        -2.107087        -1.041276         0.107785
 H        -3.499668         1.614913         0.814718
 H        -1.016027         2.334760        -0.009825
 H        -0.044859         2.429885         2.686365
 H        -1.385758         3.634397         2.428256
 H        -3.013896         0.029230         2.964662
 H        -0.101129         0.094580         2.816972
 H        -0.944895        -1.376184         2.155283
