19
Iteration:  1569
 O         0.622473         0.265678         0.144256
 C        -0.571382         0.481471         0.761413
 C        -1.794852         0.043218        -0.025845
 C        -2.520121         0.942493         0.992124
 C        -1.323301         1.895427         0.878275
 C        -1.060501         2.502625         2.282596
 O        -1.790543         1.699922         3.150832
 C        -2.152082         0.498934         2.400675
 C        -0.869190        -0.270502         2.117784
 H         1.348981         0.011880         0.859975
 H        -1.871349         0.678632        -0.991885
 H        -2.097843        -1.026654        -0.033852
 H        -3.540307         1.339862         0.878751
 H        -1.080403         2.514707         0.006772
 H         0.033241         2.425395         2.534523
 H        -1.444222         3.476729         2.330708
 H        -2.921848        -0.061672         2.920434
 H        -0.104790        -0.108029         2.915287
 H        -1.031931        -1.314809         1.982148
