19
Iteration:  1442
 O         0.728033         0.256412         0.218164
 C        -0.601823         0.460142         0.720561
 C        -1.931007         0.041287        -0.010115
 C        -2.569887         1.038893         1.001310
 C        -1.305641         1.874841         0.854555
 C        -1.023172         2.519110         2.268060
 O        -1.853056         1.609832         3.133805
 C        -2.098540         0.519528         2.414277
 C        -0.815322        -0.228108         2.073608
 H         1.372865         0.066605         1.034727
 H        -2.013990         0.507411        -1.017226
 H        -2.142482        -0.995178        -0.154692
 H        -3.589826         1.367038         0.970324
 H        -1.140377         2.280486        -0.163530
 H         0.038451         2.643005         2.499272
 H        -1.497389         3.526691         2.499840
 H        -2.761600        -0.128024         2.930662
 H        -0.112817        -0.010061         2.892973
 H        -0.903589        -1.318071         2.017682
