19
Iteration:  3348charge 0 multiplicity 1
 O         0.600029         0.250731         0.083022
 C        -0.616153         0.325215         0.752836
 C        -1.874182        -0.170735         0.065582
 C        -2.454737         1.019213         0.996101
 C        -1.215263         1.882917         0.954830
 C        -1.164439         2.633062         2.285649
 O        -1.900261         1.750232         3.090067
 C        -2.086798         0.529920         2.385789
 C        -0.749171        -0.191654         2.122605
 H         1.453393         0.253036         0.733531
 H        -1.826316         0.001626        -0.965021
 H        -2.075091        -1.215388         0.260096
 H        -3.375424         1.606780         0.862190
 H        -1.209242         2.441960        -0.151743
 H        -0.107418         2.610999         2.588850
 H        -1.652140         3.630590         2.271245
 H        -2.748950        -0.153283         2.979339
 H        -0.028190         0.228400         2.761611
 H        -0.600517        -1.246775         2.135972
