19
Iteration:  4958charge 0 multiplicity 1
 O         0.690366         0.165241         0.292228
 C        -0.582852         0.436163         0.745669
 C        -1.890073         0.034288        -0.007618
 C        -2.539707         0.936169         1.002674
 C        -1.324920         1.847541         0.824712
 C        -1.183770         2.633177         2.103834
 O        -1.711124         1.697805         3.144155
 C        -2.133535         0.439490         2.457255
 C        -0.797872        -0.212414         2.132130
 H         1.382675         0.971507         0.414119
 H        -2.153302         0.530844        -1.058094
 H        -1.943404        -1.163316         0.185075
 H        -3.465812         1.556869         0.923953
 H        -1.224705         2.307280        -0.120338
 H        -0.152628         2.936494         2.416628
 H        -1.798174         3.475343         2.237604
 H        -2.897046        -0.031832         3.034143
 H        -0.003903         0.029778         2.871277
 H        -0.870457        -1.296295         2.023600
