19
Iteration:  1024
 O         0.668082         0.342593         0.106487
 C        -0.559237         0.418723         0.718258
 C        -1.861329        -0.018517         0.010237
 C        -2.510285         0.979937         0.913473
 C        -1.134605         1.864906         0.941153
 C        -1.024516         2.493701         2.269847
 O        -1.926127         1.716531         3.240514
 C        -2.191113         0.550268         2.450500
 C        -0.855028        -0.247277         2.103755
 H         0.786373        -0.688180        -0.015518
 H        -1.894896         0.371226        -1.027032
 H        -2.204804        -1.035357         0.065198
 H        -3.497491         1.302786         0.731107
 H        -0.915179         2.499522         0.133330
 H         0.018251         2.346700         2.758804
 H        -1.347368         3.605199         2.210725
 H        -3.031972        -0.076065         2.856182
 H        -0.055560         0.035317         2.804824
 H        -0.990382        -1.290917         2.058800
