19
Iteration:  2409charge 0 multiplicity 1
 O         0.594900         0.165535         0.093448
 C        -0.608267         0.482682         0.759235
 C        -1.798824        -0.103544        -0.068769
 C        -2.558966         0.855832         1.002131
 C        -1.345251         1.863398         0.902952
 C        -1.046551         2.500054         2.299435
 O        -1.907722         1.790003         3.144015
 C        -2.123815         0.533745         2.471672
 C        -0.714217        -0.072479         2.132335
 H         1.425286         0.539040         0.651976
 H        -1.646540         0.436916        -1.057829
 H        -1.864036        -1.135171        -0.188455
 H        -3.608290         1.232544         0.891437
 H        -1.408318         2.418363        -0.130484
 H        -0.017657         2.276202         2.570049
 H        -1.135293         3.645375         2.412523
 H        -2.780569        -0.023702         3.118340
 H         0.191205         0.235275         2.759936
 H        -0.707007        -1.124207         2.194153
