19
Iteration:   128charge 0 multiplicity 1
 O         0.720284         0.051605         0.178297
 C        -0.528224         0.491869         0.723840
 C        -1.815879         0.039022        -0.055598
 C        -2.505830         1.014896         0.900656
 C        -1.232795         2.004927         0.852054
 C        -1.072219         2.482515         2.381603
 O        -1.978559         1.659990         3.226175
 C        -2.117265         0.539055         2.430429
 C        -0.843814        -0.112328         2.130435
 H         0.498930        -0.408166        -0.754865
 H        -1.866385         0.512652        -1.046430
 H        -2.092275        -1.108357        -0.101899
 H        -3.572854         1.362751         0.943789
 H        -1.146168         2.717601        -0.000858
 H        -0.033751         2.307225         2.779490
 H        -1.219041         3.569017         2.574866
 H        -2.769773        -0.152365         2.923644
 H        -0.057715         0.012279         2.936039
 H        -1.109718        -1.209417         1.932344
