19
Iteration:  1476charge 0 multiplicity 1
 O         0.684205         0.238931         0.049937
 C        -0.568188         0.416532         0.727306
 C        -1.859013        -0.015082        -0.092272
 C        -2.527603         1.008081         0.982579
 C        -1.290480         1.922579         0.903821
 C        -1.018295         2.505823         2.335540
 O        -1.960557         1.705695         3.194508
 C        -2.129865         0.524809         2.425001
 C        -0.780410        -0.233817         2.161599
 H         1.386470         0.128335         0.737577
 H        -1.955824         0.364146        -1.085406
 H        -2.128860        -1.086457        -0.025076
 H        -3.476142         1.442243         0.771504
 H        -0.998200         2.373133        -0.040516
 H        -0.010397         2.352756         2.752093
 H        -1.412303         3.518875         2.540345
 H        -2.869816         0.013982         3.027565
 H        -0.019856         0.085624         2.871665
 H        -0.907790        -1.343799         2.221421
