19
Iteration:  2371charge 0 multiplicity 1
 O         0.652444         0.280288         0.033064
 C        -0.505869         0.366582         0.797040
 C        -1.966872        -0.119717         0.075484
 C        -2.493451         1.041546         1.046145
 C        -1.180238         1.802389         0.874887
 C        -1.194636         2.626833         2.230837
 O        -1.894339         1.727872         3.103817
 C        -2.131764         0.532547         2.409791
 C        -0.693902        -0.259693         2.147177
 H         1.420275         0.411619         0.595715
 H        -1.872758         0.201944        -0.934817
 H        -2.321208        -1.196610         0.387674
 H        -3.423706         1.666862         1.047641
 H        -1.033078         2.424179        -0.034917
 H        -0.141002         2.896914         2.657606
 H        -1.849269         3.457040         2.281063
 H        -2.944777        -0.016075         2.965851
 H        -0.089586         0.008868         2.973143
 H        -0.769413        -1.364775         1.897728
