19
Iteration:  2626
 O         0.656479         0.211053         0.150799
 C        -0.599520         0.434727         0.744110
 C        -1.833358        -0.012927        -0.047261
 C        -2.567644         0.856302         0.976046
 C        -1.330843         1.815635         0.911566
 C        -1.132280         2.665996         2.241100
 O        -1.791627         1.706332         3.153384
 C        -2.116856         0.505968         2.484910
 C        -0.755843        -0.132701         2.079667
 H         1.345350        -0.200684         0.794859
 H        -1.820290         0.537855        -1.066617
 H        -1.968050        -1.136829        -0.061641
 H        -3.571858         1.241212         1.072695
 H        -1.438298         2.468145        -0.034693
 H        -0.084383         2.830113         2.635401
 H        -1.645257         3.572271         2.196972
 H        -2.770868        -0.030390         3.133793
 H        -0.015655         0.204184         2.756741
 H        -0.728535        -1.253210         2.032155
