19
Iteration:   537charge 0 multiplicity 1
 O         0.684708         0.247122         0.084832
 C        -0.576961         0.405476         0.731754
 C        -1.857333        -0.023478         0.000852
 C        -2.584190         1.039838         0.945104
 C        -1.184172         1.857227         0.958119
 C        -0.985225         2.539031         2.295901
 O        -1.905368         1.731492         3.224014
 C        -2.203048         0.527885         2.365886
 C        -0.861945        -0.274932         2.057953
 H         1.446394         0.065070         0.717290
 H        -1.800748         0.343880        -1.089672
 H        -2.034445        -1.050109         0.196961
 H        -3.574233         1.443389         0.828239
 H        -0.886167         2.540588         0.150375
 H         0.024902         2.646974         2.731874
 H        -1.535180         3.500267         2.287437
 H        -2.783635        -0.160932         3.017607
 H        -0.141701         0.017598         2.853860
 H        -1.050321        -1.347724         2.103602
