19
Iteration:  2623
 O         0.661848         0.197546         0.164977
 C        -0.606585         0.460564         0.747258
 C        -1.849499        -0.020564        -0.055259
 C        -2.589930         0.863698         0.993099
 C        -1.317335         1.837164         0.879546
 C        -1.129471         2.656456         2.238973
 O        -1.794576         1.705541         3.162181
 C        -2.116634         0.490596         2.464855
 C        -0.742292        -0.140139         2.082188
 H         1.356249        -0.159445         0.803610
 H        -1.839955         0.533799        -0.960338
 H        -1.946219        -1.154598        -0.054211
 H        -3.617385         1.345115         1.053529
 H        -1.377355         2.433722        -0.001677
 H        -0.151990         2.807199         2.629773
 H        -1.706275         3.659813         2.197364
 H        -2.761589        -0.042016         3.118187
 H         0.127555         0.178745         2.713389
 H        -0.635776        -1.318749         2.065779
