19
Iteration:  4276
 O         0.702262         0.104223         0.192413
 C        -0.582212         0.384294         0.741201
 C        -1.786013         0.088440        -0.064258
 C        -2.509433         1.032239         0.967761
 C        -1.274921         1.889617         0.970768
 C        -1.226274         2.665367         2.283203
 O        -1.827105         1.677354         3.249294
 C        -2.140722         0.437618         2.390555
 C        -0.782866        -0.238185         2.069242
 H         0.619887         0.254093        -0.792920
 H        -1.596356         0.599809        -0.968430
 H        -2.178875        -0.950315        -0.025442
 H        -3.495129         1.412465         0.786943
 H        -1.226875         2.457374        -0.082450
 H        -0.223206         2.776413         2.764966
 H        -1.577144         3.633693         2.242172
 H        -2.763398        -0.185365         2.993981
 H        -0.097527         0.238335         2.855690
 H        -0.726803        -1.354187         1.879507
