19
Iteration:   700charge 0 multiplicity 1
 O         0.698005         0.275670         0.145353
 C        -0.590050         0.332059         0.721520
 C        -1.904673         0.053481        -0.008813
 C        -2.529414         1.091204         0.973564
 C        -1.177001         1.781791         0.925650
 C        -1.081660         2.484492         2.330806
 O        -1.919608         1.712138         3.186817
 C        -2.187884         0.543684         2.370783
 C        -0.769996        -0.204678         2.054613
 H         1.127136        -0.607530         0.552873
 H        -1.918617         0.501833        -1.041169
 H        -2.273390        -0.942296         0.071459
 H        -3.426909         1.589165         0.813458
 H        -1.030170         2.428406         0.095425
 H        -0.027314         2.361360         2.716505
 H        -1.354011         3.595267         2.194267
 H        -2.805462        -0.116262         2.943144
 H        -0.000771         0.200669         2.762239
 H        -0.755970        -1.288470         2.169562
