19
Iteration:  3864charge 0 multiplicity 1
 O         0.732918         0.226945         0.178667
 C        -0.600324         0.457835         0.679047
 C        -1.850356         0.023828        -0.049521
 C        -2.500098         1.042830         1.010502
 C        -1.156946         1.805753         0.891937
 C        -1.116360         2.546728         2.190900
 O        -1.881356         1.667601         3.242281
 C        -2.111755         0.499356         2.490223
 C        -0.886983        -0.187887         2.058913
 H         1.063105        -0.521860         0.588283
 H        -2.081399         0.608811        -0.950389
 H        -2.188464        -0.978516         0.068919
 H        -3.521036         1.473703         0.930470
 H        -1.373166         2.334953        -0.019700
 H        -0.161865         2.956443         2.606498
 H        -1.769078         3.429347         2.048706
 H        -2.893309        -0.078706         3.027688
 H         0.030867         0.003239         2.719225
 H        -0.945287        -1.292872         1.994247
