19
Iteration:  1432
 O         0.685670         0.280131         0.181169
 C        -0.575284         0.446120         0.778593
 C        -1.911458         0.060580        -0.059233
 C        -2.556597         1.010593         0.952221
 C        -1.290450         1.891441         0.867593
 C        -1.113655         2.569211         2.250234
 O        -1.766224         1.685968         3.156885
 C        -2.136924         0.423520         2.399817
 C        -0.819146        -0.317085         2.148164
 H         1.262756         0.046839         0.994132
 H        -1.835318         0.414461        -1.086289
 H        -2.128508        -1.013991         0.081258
 H        -3.556394         1.371206         0.999833
 H        -1.158312         2.674215         0.098601
 H        -0.037283         2.364711         2.442061
 H        -1.353923         3.642219         2.397252
 H        -3.012692         0.016068         2.868025
 H        -0.078890        -0.103681         2.878193
 H        -0.865483        -1.373251         1.877495
