19
Iteration:  2154
 O         0.756281         0.368418         0.013878
 C        -0.599897         0.365463         0.731161
 C        -1.903056        -0.087299         0.022634
 C        -2.566100         0.975250         1.074294
 C        -1.210924         1.750104         0.913442
 C        -1.087308         2.534530         2.212232
 O        -1.869652         1.820652         3.160697
 C        -2.221044         0.566922         2.474221
 C        -0.749387        -0.299231         2.160199
 H         1.352511         0.098185         0.632952
 H        -1.965359         0.294471        -0.940632
 H        -2.225825        -1.037280        -0.006432
 H        -3.555492         1.454187         0.843425
 H        -1.114215         2.428269         0.036336
 H        -0.099292         2.642747         2.578043
 H        -1.489945         3.599391         1.927899
 H        -2.916326        -0.081392         3.022129
 H        -0.154323        -0.175015         3.000168
 H        -0.858921        -1.403788         2.063168
