19
Iteration:  3012charge 0 multiplicity 1
 O         0.703764         0.212981         0.209007
 C        -0.616818         0.490192         0.705118
 C        -1.817974        -0.080142         0.007808
 C        -2.543633         0.916424         0.960145
 C        -1.251234         1.861152         0.874443
 C        -1.129873         2.575455         2.258237
 O        -1.835190         1.752502         3.242259
 C        -2.155540         0.494463         2.422220
 C        -0.743683        -0.126275         2.073156
 H         0.504340        -0.599659        -0.269869
 H        -1.931751         0.241770        -1.001112
 H        -1.836176        -1.135079         0.248429
 H        -3.578750         1.377883         0.825480
 H        -1.355228         2.450321         0.072116
 H        -0.117072         2.801203         2.394925
 H        -1.663019         3.646927         2.231938
 H        -2.992640        -0.193833         2.871953
 H         0.103101         0.158213         2.803327
 H        -0.814309        -1.257931         2.008435
