19
Iteration:  2050
 O         0.706535         0.392376         0.167786
 C        -0.560084         0.389766         0.787167
 C        -1.968750        -0.057558         0.080742
 C        -2.547933         0.961254         1.032391
 C        -1.227124         1.801330         0.868062
 C        -1.095671         2.581908         2.185545
 O        -1.793158         1.734361         3.055564
 C        -2.172622         0.477334         2.446397
 C        -0.784988        -0.261188         2.174028
 H         1.035986        -0.547209        -0.054711
 H        -1.866331         0.356667        -0.971554
 H        -2.279302        -1.162937         0.135248
 H        -3.473980         1.575172         1.066596
 H        -1.153611         2.411227        -0.084586
 H        -0.025780         2.828546         2.513593
 H        -1.622617         3.516497         2.085207
 H        -2.952059        -0.039586         3.030785
 H         0.029477         0.138402         2.903414
 H        -0.911709        -1.305542         1.923897
