19
Iteration:  3850
 O         0.760867         0.226548         0.181957
 C        -0.541951         0.402912         0.695804
 C        -1.934233         0.019224        -0.021324
 C        -2.528089         0.974481         0.982894
 C        -1.266221         1.931608         0.916735
 C        -1.161276         2.597842         2.313882
 O        -1.808071         1.703834         3.138373
 C        -2.161052         0.513148         2.421971
 C        -0.802130        -0.235567         2.106973
 H         0.879878        -0.814502         0.092561
 H        -1.899548         0.135645        -1.106440
 H        -2.214127        -1.117821         0.051650
 H        -3.496257         1.448765         0.782199
 H        -0.989182         2.711774         0.102605
 H        -0.066657         2.659133         2.672837
 H        -1.663492         3.538992         2.355294
 H        -2.867942        -0.049408         3.023876
 H        -0.094217         0.003797         2.882609
 H        -0.983900        -1.331861         2.026864
