19
Iteration:  3500
 O         0.787551         0.374313         0.129734
 C        -0.564520         0.410534         0.644215
 C        -1.980286        -0.141253         0.035448
 C        -2.506044         0.991764         0.991761
 C        -1.209973         1.753029         0.906299
 C        -1.114288         2.498470         2.218903
 O        -1.919581         1.805695         3.137368
 C        -2.156058         0.496613         2.491216
 C        -0.779258        -0.130075         2.171370
 H         1.067633        -0.645639         0.333230
 H        -2.033593        -0.002880        -1.024244
 H        -2.214697        -1.199206         0.268557
 H        -3.441003         1.454784         0.802447
 H        -1.255681         2.393930        -0.097252
 H        -0.058985         2.489558         2.495867
 H        -1.431367         3.669587         2.255902
 H        -2.848682        -0.118730         3.085515
 H         0.003306         0.319734         2.789162
 H        -0.843112        -1.271456         2.316004
