19
Iteration:    91
 O         0.751537         0.296914         0.109976
 C        -0.544109         0.293732         0.725729
 C        -1.944751         0.088341        -0.065494
 C        -2.456764         1.085694         1.002606
 C        -1.084187         1.780595         0.915969
 C        -1.101222         2.525325         2.287425
 O        -1.998033         1.719246         3.216986
 C        -2.139169         0.515505         2.428235
 C        -0.866605        -0.266564         2.165845
 H         0.844164        -0.537291        -0.400390
 H        -1.788755         0.648956        -1.070964
 H        -2.401260        -0.856573        -0.296834
 H        -3.375312         1.667951         0.850007
 H        -0.862236         2.416314         0.049256
 H        -0.122186         2.666735         2.812089
 H        -1.585192         3.443353         2.200159
 H        -2.984207        -0.080812         2.874590
 H        -0.073629        -0.043591         2.897440
 H        -0.959464        -1.345062         2.346529
