19
Iteration:  1763charge 0 multiplicity 1
 O         0.686666         0.333300         0.080396
 C        -0.587771         0.374139         0.706796
 C        -1.926003        -0.022822         0.036180
 C        -2.535338         0.977638         1.036150
 C        -1.210184         1.802545         0.894150
 C        -1.032573         2.524588         2.233875
 O        -1.895099         1.695519         3.138535
 C        -2.138778         0.552519         2.459213
 C        -0.828613        -0.224806         2.160951
 H         1.412396         0.474253         0.773166
 H        -1.903283         0.230874        -0.927534
 H        -2.093828        -1.103726         0.008151
 H        -3.490635         1.478576         0.730955
 H        -0.961337         2.331543        -0.022373
 H        -0.046028         2.702126         2.624575
 H        -1.531832         3.582665         2.201510
 H        -2.937557         0.011399         2.990478
 H         0.029310        -0.137568         2.870058
 H        -0.930329        -1.328441         1.929303
