19
Iteration:   858charge 0 multiplicity 1
 O         0.635625         0.135820         0.086671
 C        -0.543179         0.333278         0.686246
 C        -1.856682         0.016942        -0.092800
 C        -2.506715         1.064205         1.031673
 C        -1.209377         1.893342         0.905573
 C        -1.049293         2.541846         2.358019
 O        -1.899377         1.713074         3.184104
 C        -2.184987         0.522167         2.420225
 C        -0.796329        -0.230409         2.130729
 H         1.197830         0.504712         0.772211
 H        -1.655121         0.514317        -0.984455
 H        -2.211585        -1.034331        -0.201343
 H        -3.502933         1.629219         0.844150
 H        -1.231953         2.727717         0.160790
 H        -0.072475         2.532968         2.714147
 H        -1.616715         3.569209         2.313250
 H        -2.997629        -0.132018         2.849571
 H        -0.061806         0.234274         2.770602
 H        -0.765568        -1.325972         2.160860
