19
Iteration:  4979charge 0 multiplicity 1
 O         0.716188         0.265248         0.168891
 C        -0.613973         0.344316         0.762972
 C        -1.853707        -0.054772        -0.015663
 C        -2.565225         0.951054         0.958748
 C        -1.279077         1.825369         0.892132
 C        -1.259278         2.626572         2.165326
 O        -1.643743         1.735697         3.155514
 C        -2.129507         0.569858         2.464395
 C        -0.820908        -0.249837         2.140912
 H         1.333348         0.079867         0.902589
 H        -1.704546         0.488027        -1.052877
 H        -2.335956        -1.140400        -0.054100
 H        -3.657082         1.118206         0.808348
 H        -1.266887         2.417938         0.042207
 H        -0.281778         2.996595         2.640688
 H        -1.882689         3.480376         1.974925
 H        -2.899689         0.200561         3.063049
 H        -0.194136         0.049734         2.981561
 H        -0.895225        -1.349455         2.086292
