19
Iteration:  4115charge 0 multiplicity 1
 O         0.710199         0.209414         0.183101
 C        -0.562101         0.404764         0.666848
 C        -1.821488         0.023281        -0.059741
 C        -2.481358         0.976100         0.982956
 C        -1.216125         1.870601         0.937651
 C        -1.129808         2.568178         2.269495
 O        -1.909811         1.687181         3.230511
 C        -2.167768         0.557355         2.461972
 C        -0.820817        -0.254375         2.120152
 H         0.689741        -0.080605        -0.724012
 H        -1.942656         0.493048        -1.082069
 H        -2.087404        -1.062017         0.050117
 H        -3.394215         1.469407         0.979309
 H        -1.089229         2.612835         0.130986
 H        -0.106163         2.787498         2.556456
 H        -1.611855         3.532652         2.334651
 H        -2.922807        -0.107022         2.869183
 H         0.032267         0.055249         2.780492
 H        -0.873333        -1.292143         1.956317
