19
Iteration:  4178charge 0 multiplicity 1
 O         0.755801         0.239430         0.251945
 C        -0.537323         0.413212         0.710793
 C        -1.980474         0.021668         0.007042
 C        -2.537344         0.999905         0.942187
 C        -1.203606         1.772337         0.931966
 C        -1.122058         2.470736         2.272904
 O        -1.857097         1.712592         3.194817
 C        -2.157614         0.561163         2.448324
 C        -0.783672        -0.219517         1.998699
 H         1.071341         0.991130        -0.310257
 H        -1.971255         0.362318        -0.986412
 H        -2.371468        -1.018209         0.035910
 H        -3.526346         1.406905         0.646342
 H        -1.089968         2.564753         0.043921
 H        -0.068728         2.578889         2.561489
 H        -1.645513         3.568397         2.327049
 H        -2.847569        -0.025242         3.031712
 H         0.065440        -0.065119         2.743842
 H        -1.020977        -1.328529         2.034979
