19
Iteration:   310
 O         0.665685         0.180170         0.216357
 C        -0.608476         0.462458         0.759858
 C        -1.869246         0.004722        -0.029928
 C        -2.519807         1.155419         0.990713
 C        -1.176461         1.906555         0.889070
 C        -1.028567         2.508108         2.229169
 O        -1.910293         1.643456         3.151842
 C        -2.174967         0.426379         2.417153
 C        -0.780683        -0.203820         2.053236
 H         1.221847        -0.149447         0.875654
 H        -1.963739         0.250650        -1.132368
 H        -2.163442        -0.988869         0.205281
 H        -3.506884         1.674468         0.869583
 H        -1.141998         2.498464        -0.053449
 H        -0.025171         2.483308         2.613771
 H        -1.405159         3.645714         2.390846
 H        -3.043346        -0.150025         2.794773
 H        -0.222242         0.231724         2.881047
 H        -0.832913        -1.286280         1.961993
