19
Iteration:  2105charge 0 multiplicity 1
 O         0.678970         0.167892         0.077381
 C        -0.569354         0.489854         0.767579
 C        -1.786401         0.048388         0.069692
 C        -2.590529         0.902304         0.953302
 C        -1.381292         1.878418         0.863949
 C        -1.065618         2.569125         2.224082
 O        -1.851677         1.705739         3.171432
 C        -2.142343         0.501696         2.450195
 C        -0.770834        -0.120477         2.125227
 H         1.147967        -0.712611         0.466473
 H        -1.967786         0.175062        -1.076954
 H        -2.050157        -1.086440         0.344812
 H        -3.606026         1.303873         0.920104
 H        -1.190929         2.643362         0.089933
 H         0.044511         2.479365         2.423121
 H        -1.310907         3.551825         2.216676
 H        -2.822001        -0.159126         3.003363
 H        -0.058100         0.301545         2.959443
 H        -0.645404        -1.193929         2.230308
