19
Iteration:  2889charge 0 multiplicity 1
 O         0.695244         0.139288         0.067721
 C        -0.551859         0.358988         0.686718
 C        -1.904400         0.043830        -0.026090
 C        -2.470122         0.963403         1.015146
 C        -1.199971         1.859884         0.924480
 C        -1.221676         2.630665         2.257647
 O        -1.905455         1.797997         3.230825
 C        -2.113611         0.424546         2.491760
 C        -0.764406        -0.201002         2.157907
 H         1.402365         0.348233         0.572450
 H        -1.804389         0.387612        -1.118334
 H        -2.242718        -1.001620        -0.163053
 H        -3.441736         1.289310         0.793757
 H        -1.268732         2.347717        -0.065322
 H        -0.245353         2.929959         2.522154
 H        -1.725446         3.675870         1.932442
 H        -2.738237        -0.244040         3.031344
 H         0.128281         0.183015         2.611480
 H        -0.884728        -1.371459         2.032923
