19
Iteration:  2801
 O         0.691121         0.292816         0.185668
 C        -0.611586         0.448285         0.735622
 C        -1.885017        -0.057485        -0.009017
 C        -2.608068         0.908672         1.048215
 C        -1.285915         1.850131         0.857555
 C        -1.023572         2.548276         2.206433
 O        -1.923408         1.774582         3.110130
 C        -2.126875         0.515034         2.524103
 C        -0.704331        -0.214117         2.086701
 H         1.347038        -0.207326         0.699808
 H        -1.947608         0.495292        -1.010266
 H        -1.921923        -1.149921        -0.135885
 H        -3.607676         1.137185         0.830582
 H        -1.330602         2.471274        -0.087400
 H        -0.008204         2.434970         2.601404
 H        -1.267644         3.731417         2.336884
 H        -2.846146        -0.017989         3.068173
 H         0.260380        -0.063531         2.578377
 H        -0.917693        -1.380736         2.002411
