19
Iteration:  2755charge 0 multiplicity 1
 O         0.731048         0.362809         0.099939
 C        -0.565240         0.372008         0.720358
 C        -1.895033        -0.057507         0.075869
 C        -2.524829         0.985263         1.029437
 C        -1.159669         1.774217         0.900873
 C        -1.219988         2.546474         2.210581
 O        -1.832942         1.737145         3.180229
 C        -2.169778         0.566317         2.404853
 C        -0.765352        -0.249905         2.143945
 H         0.903707        -0.496875        -0.211391
 H        -1.974919         0.232069        -0.973802
 H        -2.271767        -1.091276         0.355239
 H        -3.564112         1.445274         0.936826
 H        -0.823750         2.352643         0.008157
 H        -0.308609         3.004953         2.551537
 H        -1.949472         3.518404         1.893760
 H        -2.883905         0.047481         2.955002
 H        -0.083363         0.101816         2.917490
 H        -0.703902        -1.442664         2.266734
