19
Iteration:   880
 O         0.608579         0.087249         0.094559
 C        -0.526708         0.489875         0.765800
 C        -1.849809         0.106027        -0.060137
 C        -2.512855         1.029838         1.009455
 C        -1.186475         1.865591         0.972744
 C        -1.060065         2.547165         2.301470
 O        -1.943145         1.675831         3.139898
 C        -2.139766         0.483337         2.407751
 C        -0.801483        -0.210465         2.136909
 H         1.453698         0.674403         0.303843
 H        -2.049161         0.393555        -1.029098
 H        -2.232179        -0.908368         0.162952
 H        -3.563060         1.343413         0.729284
 H        -0.805265         2.504710         0.152510
 H        -0.048472         2.415570         2.531477
 H        -1.451086         3.637134         2.301605
 H        -2.869615        -0.250758         2.819187
 H        -0.005555         0.009244         2.829170
 H        -1.050179        -1.262340         2.051373
