19
Iteration:  1902
 O         0.731789         0.402733         0.207885
 C        -0.642179         0.376444         0.674678
 C        -1.991896        -0.035630        -0.055925
 C        -2.505238         0.931577         1.032579
 C        -1.212594         1.768760         0.859465
 C        -1.039659         2.520954         2.236345
 O        -1.883073         1.734925         3.173081
 C        -2.091891         0.542378         2.472992
 C        -0.777695        -0.198982         2.146137
 H         1.133757        -0.466584         0.422235
 H        -2.235361         0.237363        -1.158263
 H        -2.248789        -1.143124        -0.085728
 H        -3.369700         1.603309         0.805477
 H        -1.347522         2.398896        -0.009552
 H         0.016062         2.661229         2.606081
 H        -1.450611         3.438562         2.015770
 H        -2.966017         0.011817         2.951828
 H         0.032470        -0.014939         2.747185
 H        -0.902017        -1.279446         2.230241
