19
Iteration:   170
 O         0.649761         0.250519         0.250692
 C        -0.582047         0.366005         0.755212
 C        -1.966496         0.077111        -0.047495
 C        -2.480672         1.033938         1.026929
 C        -1.056100         1.848826         0.905405
 C        -1.042090         2.514633         2.249021
 O        -1.942317         1.711493         3.075683
 C        -2.088201         0.482461         2.376197
 C        -0.859222        -0.296074         2.170811
 H         0.918832         1.028074        -0.166465
 H        -1.946679         0.453304        -1.106383
 H        -2.299748        -1.000751         0.058136
 H        -3.533964         1.446288         0.975311
 H        -0.728034         2.410351        -0.023707
 H        -0.049663         2.433009         2.805415
 H        -1.395819         3.463014         2.322619
 H        -2.934330        -0.030222         2.852588
 H        -0.065608        -0.123046         2.922557
 H        -1.280485        -1.291452         1.919886
