19
Iteration:  3750
 O         0.700056         0.253120         0.068836
 C        -0.569209         0.394048         0.766853
 C        -1.795984        -0.032991        -0.019190
 C        -2.573980         0.995425         0.940097
 C        -1.238584         1.829405         0.931371
 C        -1.127476         2.601237         2.222796
 O        -1.794347         1.708674         3.229205
 C        -2.220465         0.504765         2.443456
 C        -0.837822        -0.183477         2.122299
 H         1.239099        -0.338387         0.776441
 H        -1.904064         0.355904        -1.003065
 H        -2.208868        -1.090406         0.190563
 H        -3.539786         1.352477         0.684981
 H        -1.354400         2.348646        -0.048538
 H         0.004058         2.736326         2.526123
 H        -1.522038         3.579218         2.240377
 H        -2.951629        -0.058058         3.014786
 H        -0.060427         0.206144         2.741648
 H        -0.724503        -1.271124         2.224808
