19
Iteration:   657charge 0 multiplicity 1
 O         0.723161         0.299472         0.178181
 C        -0.543284         0.358570         0.730414
 C        -1.842219         0.064441        -0.037043
 C        -2.585130         1.035307         0.948553
 C        -1.288011         1.840347         0.920523
 C        -1.021469         2.473516         2.235254
 O        -1.780660         1.742373         3.264627
 C        -2.187834         0.491666         2.442272
 C        -0.965154        -0.270432         2.027358
 H         1.441337        -0.056571         0.814582
 H        -1.893945         0.497343        -1.086332
 H        -2.122141        -0.983628        -0.057430
 H        -3.511987         1.400473         0.664963
 H        -1.062108         2.343836         0.016308
 H         0.077128         2.530921         2.306993
 H        -1.473049         3.632997         2.283070
 H        -2.977661        -0.001687         2.962832
 H        -0.153408        -0.090866         2.780046
 H        -1.101631        -1.352429         2.037596
