19
Iteration:  1997
 O         0.688736         0.371875         0.143995
 C        -0.559804         0.385051         0.688860
 C        -1.960723         0.000900         0.084562
 C        -2.520942         0.922154         1.042346
 C        -1.253599         1.816823         0.872895
 C        -1.026831         2.500600         2.168910
 O        -1.922570         1.772920         3.098766
 C        -2.115698         0.466679         2.447554
 C        -0.801291        -0.191454         2.176693
 H         1.186065        -0.457853         0.567872
 H        -2.134650         0.361411        -0.977983
 H        -2.052458        -1.015770         0.049852
 H        -3.538555         1.354996         1.096222
 H        -1.159295         2.431422        -0.052219
 H         0.052831         2.475293         2.436076
 H        -1.235834         3.676410         2.264036
 H        -2.822699        -0.238768         2.925106
 H         0.187685         0.120992         2.754692
 H        -0.775760        -1.317773         2.278528
