19
Iteration:  3538
 O         0.668045         0.412587         0.064323
 C        -0.579578         0.442729         0.787029
 C        -1.819327        -0.112616         0.039453
 C        -2.520923         0.918859         0.936351
 C        -1.319820         1.809101         0.925206
 C        -1.042120         2.509380         2.193661
 O        -1.872762         1.779520         3.045244
 C        -2.141960         0.494050         2.457013
 C        -0.822709        -0.227823         2.300654
 H         0.936739        -0.548211         0.159255
 H        -1.892621         0.215221        -1.057043
 H        -2.053373        -1.125229         0.340896
 H        -3.481261         1.533891         0.769324
 H        -1.193262         2.500727         0.111107
 H         0.051827         2.298876         2.528389
 H        -1.125676         3.574436         2.154106
 H        -2.928217         0.111891         3.144124
 H        -0.165023         0.143343         3.115895
 H        -0.814044        -1.266308         2.312990
