19
Iteration:   564
 O         0.642783         0.156080         0.044918
 C        -0.550190         0.413860         0.766679
 C        -1.944345         0.087932        -0.016808
 C        -2.456595         1.101853         0.992143
 C        -1.164924         1.849680         0.888224
 C        -1.046206         2.500007         2.316312
 O        -2.042898         1.702401         3.134827
 C        -2.216512         0.508867         2.374821
 C        -0.642956        -0.288624         2.195514
 H         1.489714         0.251826         0.622391
 H        -1.930515         0.500679        -0.978599
 H        -2.362875        -0.987551         0.017336
 H        -3.372418         1.778329         0.964978
 H        -1.099129         2.460923        -0.045950
 H         0.027294         2.545167         2.872102
 H        -1.461323         3.510119         2.456083
 H        -2.955673        -0.123775         2.881833
 H         0.047956         0.148802         2.909176
 H        -0.623952        -1.400336         2.225262
