19
Iteration:  1626charge 0 multiplicity 1
 O         0.691215         0.325372         0.165107
 C        -0.582350         0.445435         0.770129
 C        -1.880151         0.017041         0.023600
 C        -2.557643         1.020802         0.962975
 C        -1.295195         1.865750         0.904114
 C        -0.985073         2.529059         2.273851
 O        -1.922772         1.700613         3.123156
 C        -2.158138         0.449528         2.407438
 C        -0.752348        -0.269225         2.105524
 H         0.736928        -0.568990         0.071804
 H        -1.745150         0.262524        -1.075773
 H        -2.357436        -0.933698         0.052512
 H        -3.489102         1.491988         0.890242
 H        -1.006005         2.453758         0.037933
 H         0.002095         2.491226         2.744931
 H        -1.280654         3.541377         2.422720
 H        -2.851892        -0.106091         2.981582
 H         0.014038         0.100292         2.841436
 H        -0.685160        -1.334511         2.059886
