19
Iteration:   685
 O         0.634716         0.250597         0.185168
 C        -0.588041         0.494322         0.734789
 C        -1.891302         0.064322        -0.035393
 C        -2.501632         0.982012         0.989475
 C        -1.180560         1.951063         0.931435
 C        -0.953351         2.538887         2.249629
 O        -1.898135         1.729283         3.136495
 C        -2.161103         0.360086         2.404085
 C        -0.874397        -0.268583         2.124383
 H         1.150525        -0.363006         0.678073
 H        -1.955597         0.307880        -1.105807
 H        -2.168770        -1.021416        -0.054324
 H        -3.586475         1.378217         0.873392
 H        -1.029994         2.510304        -0.033005
 H         0.114592         2.615206         2.594744
 H        -1.318058         3.458249         2.385091
 H        -3.091309        -0.112782         2.895385
 H        -0.137307        -0.039519         2.912346
 H        -0.855262        -1.362683         1.937830
