19
Iteration:  3709charge 0 multiplicity 1
 O         0.711563         0.267643         0.209650
 C        -0.568857         0.422538         0.707424
 C        -1.872729         0.053194         0.083562
 C        -2.484924         0.951495         1.100679
 C        -1.200816         1.797782         0.959537
 C        -1.111126         2.643391         2.154241
 O        -1.899290         1.749041         3.077278
 C        -2.188109         0.415264         2.469098
 C        -0.790483        -0.260755         2.081599
 H         0.667175        -0.172166        -0.608910
 H        -1.954546         0.346637        -0.986555
 H        -2.023572        -1.106600         0.150472
 H        -3.364639         1.563667         0.921934
 H        -1.131915         2.276280        -0.153110
 H        -0.082958         2.829150         2.566628
 H        -1.626580         3.631762         2.020930
 H        -2.950292        -0.062682         3.057690
 H        -0.065933         0.091252         2.860178
 H        -0.751595        -1.428968         1.926221
