19
Iteration:  3559
 O         0.755931         0.362266         0.150479
 C        -0.561109         0.353430         0.681438
 C        -1.899429        -0.079742         0.041747
 C        -2.546024         0.887019         1.045203
 C        -1.196968         1.751817         0.816413
 C        -1.111158         2.581545         2.185042
 O        -1.892601         1.805889         3.199446
 C        -2.181297         0.542969         2.500771
 C        -0.811862        -0.162858         2.132413
 H         1.002644        -0.519372         0.117791
 H        -1.786771         0.521067        -0.891778
 H        -2.145335        -1.102527        -0.107208
 H        -3.630181         1.231252         0.921367
 H        -1.113616         2.243492        -0.192742
 H        -0.052058         2.613423         2.581974
 H        -1.533289         3.633402         2.103713
 H        -2.831806        -0.093075         3.126413
 H         0.049527        -0.000457         2.797505
 H        -0.972378        -1.190964         2.122987
