19
Iteration:  3382charge 0 multiplicity 1
 O         0.733411         0.164701         0.020961
 C        -0.551761         0.433250         0.737988
 C        -1.787657        -0.069909        -0.042984
 C        -2.523726         0.961384         1.089398
 C        -1.338852         1.797072         0.854095
 C        -1.090469         2.488809         2.210684
 O        -1.968430         1.797076         3.148434
 C        -2.156058         0.529845         2.533268
 C        -0.788153        -0.124150         2.199248
 H         1.454966         0.772001         0.413357
 H        -1.741068         0.379556        -0.990293
 H        -2.039540        -1.134890        -0.083998
 H        -3.447858         1.423734         0.850896
 H        -1.563662         2.590163        -0.029375
 H        -0.015602         2.236761         2.366465
 H        -1.108951         3.532201         2.372231
 H        -2.832726         0.004765         3.199779
 H        -0.181212         0.287330         2.956221
 H        -0.824554        -1.173016         2.261284
