19
Iteration:  1361charge 0 multiplicity 1
 O         0.607610         0.096780         0.107905
 C        -0.596790         0.466279         0.714957
 C        -1.848449         0.030348        -0.086028
 C        -2.539625         0.973105         1.016459
 C        -1.156891         1.965794         0.949938
 C        -1.104644         2.468035         2.340831
 O        -1.939008         1.691908         3.144998
 C        -2.152990         0.502010         2.400506
 C        -0.713714        -0.127796         2.110140
 H         1.383426         0.479795         0.710547
 H        -1.842123         0.482752        -1.069797
 H        -2.113551        -1.020370        -0.003388
 H        -3.604816         1.352945         0.970795
 H        -0.997137         2.581313         0.072276
 H        -0.072564         2.354415         2.635634
 H        -1.474266         3.600267         2.384228
 H        -2.731514        -0.249830         3.026489
 H         0.155042         0.194524         2.800689
 H        -0.945372        -1.225455         2.070952
