19
Iteration:   240charge 0 multiplicity 1
 O         0.701815         0.125648         0.162081
 C        -0.553894         0.415958         0.815208
 C        -1.929701         0.076515         0.021834
 C        -2.574836         1.093113         0.904427
 C        -1.191226         1.876902         0.959223
 C        -1.064696         2.557896         2.285933
 O        -1.922641         1.701095         3.101866
 C        -2.129001         0.477487         2.360067
 C        -0.799133        -0.290689         2.136977
 H         1.258010         0.814688         0.298579
 H        -1.824780         0.319053        -1.040600
 H        -2.283713        -1.001921         0.121622
 H        -3.541105         1.554924         0.971153
 H        -0.802649         2.417933         0.114476
 H        -0.015319         2.574108         2.589678
 H        -1.407352         3.586643         2.236195
 H        -2.844795        -0.194494         2.894350
 H        -0.045109         0.061982         2.843579
 H        -0.949447        -1.345399         1.954801
