19
Iteration:  4693
 O         0.746279         0.215882         0.230127
 C        -0.606255         0.399876         0.772881
 C        -1.920186         0.091727        -0.021183
 C        -2.489449         1.056442         1.037825
 C        -1.199596         1.863389         0.961272
 C        -1.204159         2.577236         2.262990
 O        -1.746655         1.688123         3.146864
 C        -2.194890         0.456291         2.380280
 C        -0.790995        -0.325592         2.071865
 H         0.658056         0.503958        -0.626202
 H        -1.846192         0.619917        -1.039641
 H        -2.267380        -1.048313        -0.166040
 H        -3.484159         1.470567         0.874720
 H        -0.972856         2.444783         0.076316
 H        -0.187232         2.930137         2.527900
 H        -1.929669         3.500126         2.022911
 H        -2.889139        -0.214977         2.946738
 H        -0.153068        -0.194075         2.930660
 H        -0.941060        -1.404647         1.853450
