19
Iteration:  4712
 O         0.689244         0.111711         0.108666
 C        -0.574331         0.382664         0.723925
 C        -1.884168         0.033224        -0.050741
 C        -2.457419         1.094492         0.976680
 C        -1.088969         1.891097         0.961975
 C        -1.257091         2.685320         2.316923
 O        -1.873916         1.619085         3.214440
 C        -2.072935         0.526555         2.429788
 C        -0.819450        -0.314640         2.106651
 H         0.878179         0.863209        -0.358322
 H        -1.939435         0.349487        -1.083573
 H        -2.326349        -1.016698         0.089661
 H        -3.469794         1.521065         0.906828
 H        -1.129416         2.474202        -0.046685
 H        -0.323860         3.042258         2.786191
 H        -1.930519         3.434370         2.189557
 H        -2.927035        -0.104904         2.911087
 H        -0.020600         0.047594         2.805509
 H        -0.891411        -1.390762         2.064566
