19
Iteration:   670charge 0 multiplicity 1
 O         0.711426         0.267385         0.163306
 C        -0.596773         0.463624         0.761632
 C        -1.839094         0.033988        -0.040313
 C        -2.567125         0.975676         0.994526
 C        -1.277853         1.865734         0.896370
 C        -1.025772         2.505343         2.294382
 O        -1.792742         1.667286         3.101927
 C        -2.190453         0.595074         2.414434
 C        -0.881136        -0.293385         2.114769
 H         1.203239        -0.212229         0.831935
 H        -1.803214         0.567393        -0.977554
 H        -2.089806        -1.061181        -0.123001
 H        -3.543716         1.421291         0.874964
 H        -1.290372         2.583429         0.075576
 H        -0.039149         2.344622         2.630003
 H        -1.268756         3.673790         2.440271
 H        -2.841261         0.087590         3.037313
 H        -0.170858        -0.310420         2.942317
 H        -1.209629        -1.291550         1.801984
