19
Iteration:  1960
 O         0.657707         0.266509         0.003671
 C        -0.609944         0.382784         0.748144
 C        -1.826699        -0.085472         0.030661
 C        -2.528440         0.935407         0.967479
 C        -1.208243         1.862254         0.945457
 C        -1.156123         2.622962         2.270508
 O        -1.830339         1.762426         3.226127
 C        -2.146305         0.496011         2.414391
 C        -0.801544        -0.187984         2.142734
 H         1.303124        -0.450603         0.272141
 H        -1.906969         0.246706        -0.947015
 H        -2.008807        -1.182322         0.283963
 H        -3.456301         1.386709         0.621455
 H        -0.919439         2.491810         0.083227
 H        -0.129567         2.752547         2.709738
 H        -1.700461         3.511586         2.178835
 H        -2.992341         0.045105         2.910107
 H        -0.017724         0.182232         2.826725
 H        -0.977975        -1.246305         2.161247
