19
Iteration:  3803charge 0 multiplicity 1
 O         0.782146         0.233310         0.130795
 C        -0.568402         0.373772         0.673789
 C        -1.889053        -0.052613        -0.017834
 C        -2.547094         0.933505         1.019441
 C        -1.162309         1.787379         0.923843
 C        -1.023761         2.510548         2.312398
 O        -1.966050         1.811848         3.164583
 C        -2.178674         0.535120         2.449651
 C        -0.828320        -0.181729         2.158934
 H         0.707005         0.959879        -0.593530
 H        -2.139883         0.393897        -0.964304
 H        -2.168036        -1.093117        -0.237278
 H        -3.510953         1.390601         0.895114
 H        -1.116257         2.455932         0.097449
 H        -0.000383         2.423430         2.670060
 H        -1.352175         3.548219         2.260018
 H        -2.978711        -0.013043         2.976314
 H        -0.070767         0.087592         2.875001
 H        -0.946890        -1.243722         2.070496
