19
Iteration:   131
 O         0.729958         0.056263         0.169305
 C        -0.532942         0.459993         0.697575
 C        -1.793347         0.041588        -0.063443
 C        -2.500279         1.032162         0.918326
 C        -1.246913         2.000034         0.849458
 C        -1.092060         2.460510         2.376824
 O        -1.960391         1.658740         3.260930
 C        -2.152399         0.564275         2.418318
 C        -0.850641        -0.104258         2.135684
 H         0.580688        -0.299483        -0.749944
 H        -1.892331         0.389785        -1.054153
 H        -2.035905        -1.046436        -0.050718
 H        -3.523390         1.328610         0.922598
 H        -1.108803         2.675085         0.035129
 H        -0.059315         2.277828         2.632432
 H        -1.162986         3.652614         2.571539
 H        -2.830380        -0.149332         2.859388
 H        -0.096340        -0.036652         2.918155
 H        -1.055671        -1.175556         2.058290
