19
Iteration:  2807charge 0 multiplicity 1
 O         0.708597         0.296783         0.187981
 C        -0.600598         0.448646         0.670841
 C        -1.921711        -0.039448        -0.034618
 C        -2.540493         0.877651         1.072728
 C        -1.285128         1.842751         0.867371
 C        -1.011278         2.542938         2.217633
 O        -1.948016         1.785637         3.100452
 C        -2.107319         0.509725         2.527526
 C        -0.758135        -0.191889         2.092833
 H         1.292590        -0.064254         0.796658
 H        -1.960814         0.481297        -0.947545
 H        -2.063128        -1.146740        -0.063449
 H        -3.635825         1.219970         0.854804
 H        -1.345808         2.411243        -0.040942
 H         0.059018         2.363009         2.473312
 H        -1.283279         3.528376         2.263761
 H        -2.757513        -0.140384         3.230347
 H         0.078986        -0.096187         2.845299
 H        -0.757743        -1.243782         2.009367
