19
Iteration:  2356charge 0 multiplicity 1
 O         0.602592         0.270415         0.065831
 C        -0.615526         0.387122         0.747092
 C        -1.856243        -0.048218         0.118128
 C        -2.497911         1.015324         0.924106
 C        -1.198257         1.891528         0.934093
 C        -1.216673         2.627117         2.197060
 O        -1.792123         1.692768         3.175736
 C        -2.071617         0.490104         2.398520
 C        -0.792910        -0.271497         2.164424
 H         1.405583         0.288776         0.754555
 H        -2.002345        -0.018402        -1.011376
 H        -2.177892        -1.070252         0.310483
 H        -3.501754         1.265802         0.776970
 H        -0.961438         2.364299         0.016481
 H        -0.272419         2.974561         2.568748
 H        -1.784415         3.565955         1.844856
 H        -2.776397        -0.127113         2.925672
 H         0.086111         0.086549         2.868238
 H        -0.888810        -1.329719         2.287373
