19
Iteration:  3203
 O         0.704685         0.091032         0.062661
 C        -0.560652         0.408714         0.743035
 C        -1.916126        -0.042395        -0.006045
 C        -2.440892         0.953868         1.022105
 C        -1.199184         1.848800         0.882630
 C        -1.168097         2.584849         2.259664
 O        -1.948841         1.728066         3.178453
 C        -2.135456         0.495360         2.451504
 C        -0.719564        -0.074168         2.144541
 H         1.349536         0.702524         0.503251
 H        -2.127118         0.503995        -0.943106
 H        -2.273413        -1.022490        -0.036109
 H        -3.478304         1.330585         0.970587
 H        -1.191300         2.544160        -0.105432
 H        -0.168812         2.736330         2.736684
 H        -1.746300         3.561682         2.168270
 H        -2.926349        -0.058615         2.929280
 H        -0.106876         0.119915         2.982259
 H        -0.638600        -1.126075         1.976534
