19
Iteration:  1005
 O         0.698011         0.346809         0.123464
 C        -0.551471         0.379697         0.739555
 C        -1.906086         0.017002        -0.003839
 C        -2.481998         1.087584         1.000736
 C        -1.206843         1.814461         0.882110
 C        -1.037601         2.534411         2.369999
 O        -1.874479         1.698331         3.073705
 C        -2.179419         0.438791         2.409136
 C        -0.862046        -0.263846         2.200931
 H         1.023527        -0.591656        -0.258033
 H        -1.897340         0.383006        -1.078286
 H        -2.196949        -0.984630        -0.012277
 H        -3.401325         1.699545         1.084522
 H        -1.156714         2.426229        -0.058577
 H        -0.024265         2.671957         2.572633
 H        -1.462111         3.620236         2.259271
 H        -3.031282        -0.023384         2.899771
 H        -0.216019        -0.148710         3.095876
 H        -1.000755        -1.359537         2.169067
