19
Iteration:  2024
 O         0.675426         0.346648         0.203289
 C        -0.605012         0.444287         0.695706
 C        -1.831092        -0.117871        -0.002747
 C        -2.583314         0.872120         0.907103
 C        -1.368623         1.855276         0.829233
 C        -1.017817         2.508136         2.221377
 O        -1.764234         1.773639         3.235802
 C        -2.163497         0.532863         2.534864
 C        -0.839611        -0.123077         2.125323
 H         0.965767        -0.692281         0.179720
 H        -1.783430         0.239494        -1.006270
 H        -1.883900        -1.333020         0.004820
 H        -3.595734         1.311265         0.761214
 H        -1.316813         2.548821        -0.016633
 H         0.096755         2.435446         2.268445
 H        -1.204775         3.570707         2.340441
 H        -2.844821        -0.085995         3.122025
 H         0.022041         0.141619         2.645592
 H        -1.023156        -1.202482         1.963581
