19
Iteration:  2519
 O         0.678106         0.228854         0.156604
 C        -0.605186         0.421965         0.652459
 C        -1.917926        -0.116205        -0.002980
 C        -2.505917         0.991968         1.014118
 C        -1.278725         1.816793         0.855248
 C        -1.110420         2.531016         2.254667
 O        -1.914818         1.700559         3.209712
 C        -2.078127         0.558077         2.471259
 C        -0.696319        -0.093997         2.039320
 H         1.261223         0.295165         0.988990
 H        -2.105541         0.144165        -1.069070
 H        -2.081344        -1.113283         0.065505
 H        -3.442958         1.495836         0.861006
 H        -1.308639         2.473711        -0.080099
 H        -0.092889         2.554136         2.609919
 H        -1.507787         3.544307         2.398101
 H        -2.708780        -0.133977         3.079168
 H         0.090909         0.168326         2.787258
 H        -0.902520        -1.108002         2.096304
