19
Iteration:  4390
 O         0.717408         0.236815         0.226024
 C        -0.561277         0.410162         0.766591
 C        -1.888454         0.036698        -0.022885
 C        -2.528099         0.978320         0.983327
 C        -1.269392         1.869478         0.955152
 C        -1.069322         2.568346         2.261848
 O        -1.899931         1.645838         3.168760
 C        -2.100557         0.507972         2.422907
 C        -0.791325        -0.215284         2.048762
 H         0.616626         0.474269        -0.635283
 H        -2.043512         0.485912        -1.017828
 H        -2.211728        -0.950929         0.033063
 H        -3.529167         1.476141         0.746894
 H        -1.115002         2.387862         0.024783
 H        -0.082906         2.517396         2.763591
 H        -1.361232         3.628107         2.224441
 H        -2.865944        -0.139938         2.985238
 H        -0.015113        -0.080439         2.765271
 H        -0.862151        -1.284801         1.826735
