19
Iteration:   785
 O         0.793050         0.345240         0.232080
 C        -0.589940         0.322447         0.698199
 C        -1.914236        -0.007037        -0.021499
 C        -2.599033         1.042093         1.009838
 C        -1.205485         1.823715         0.946591
 C        -1.010374         2.457274         2.249261
 O        -1.811804         1.696543         3.169566
 C        -2.269853         0.552844         2.410465
 C        -0.842233        -0.194888         2.078443
 H         0.911308        -0.480339        -0.061334
 H        -1.917820         0.619527        -1.038618
 H        -2.268474        -1.016293        -0.261864
 H        -3.534042         1.557104         0.850446
 H        -1.201916         2.447980         0.093404
 H         0.058712         2.558816         2.669084
 H        -1.489034         3.380467         2.026107
 H        -3.035723         0.037993         3.115660
 H        -0.062410         0.078637         2.841693
 H        -0.876260        -1.298662         1.902518
