19
Iteration:  4096charge 0 multiplicity 1
 O         0.767013         0.276145         0.195189
 C        -0.565915         0.400508         0.709157
 C        -1.968731        -0.036877         0.003816
 C        -2.549936         1.051021         0.993879
 C        -1.153500         1.807416         0.941879
 C        -1.038814         2.527746         2.354348
 O        -1.941540         1.756209         3.109600
 C        -2.177715         0.449115         2.389564
 C        -0.764444        -0.196825         2.086779
 H         0.641585         0.301719        -0.693939
 H        -1.987610         0.393966        -1.040567
 H        -2.318579        -1.051946         0.078806
 H        -3.599827         1.345670         0.790217
 H        -1.088460         2.385586         0.105920
 H        -0.037622         2.518779         2.887609
 H        -1.396147         3.542982         2.329610
 H        -2.775946        -0.337619         2.922318
 H        -0.072153         0.175471         2.832844
 H        -0.835656        -1.307101         2.173317
