19
Iteration:  2172
 O         0.608996         0.323463         0.041656
 C        -0.517761         0.403875         0.808451
 C        -1.814326        -0.023698         0.077774
 C        -2.496825         0.943143         0.985938
 C        -1.267089         1.867946         0.879526
 C        -1.111222         2.601136         2.182110
 O        -1.809610         1.719377         3.135402
 C        -2.114176         0.514916         2.468941
 C        -0.920996        -0.271173         2.189314
 H         1.370932         0.139467         0.470957
 H        -1.784400         0.209153        -1.089093
 H        -2.048886        -1.192387         0.104150
 H        -3.486456         1.235168         0.805188
 H        -1.186245         2.264160        -0.073004
 H        -0.008824         2.702148         2.430486
 H        -1.553154         3.515391         2.359500
 H        -2.913179         0.024232         3.042281
 H        -0.042616        -0.139393         2.921870
 H        -1.125369        -1.362542         2.099183
