19
Iteration:  3889
 O         0.698562         0.224095         0.122285
 C        -0.589182         0.364607         0.760424
 C        -1.891168         0.051613        -0.065254
 C        -2.558303         0.998479         0.937209
 C        -1.241304         1.859649         0.959510
 C        -1.111094         2.579507         2.285318
 O        -1.830019         1.726096         3.118325
 C        -2.108332         0.500800         2.437963
 C        -0.817437        -0.318386         2.148840
 H         1.342365         0.460554         0.765768
 H        -1.855689         0.563590        -1.020094
 H        -2.323386        -0.890830        -0.118173
 H        -3.585433         1.355992         0.887394
 H        -1.095342         2.420745         0.085628
 H        -0.084301         2.662124         2.548227
 H        -1.591060         3.625269         2.344929
 H        -2.912130         0.079473         3.063943
 H        -0.050333        -0.004007         2.906903
 H        -0.833790        -1.408321         2.124000
