19
Iteration:    38charge 0 multiplicity 1
 O         0.724379         0.285325         0.323127
 C        -0.581984         0.475274         0.751693
 C        -1.983970         0.136214        -0.115774
 C        -2.573159         1.008539         0.948721
 C        -1.259584         1.861224         0.891972
 C        -0.998167         2.425709         2.225511
 O        -1.789456         1.689575         3.105553
 C        -2.130937         0.468871         2.425541
 C        -0.886188        -0.270931         2.101884
 H         1.246244        -0.153575         1.084326
 H        -2.096863         0.557907        -1.220678
 H        -2.335697        -0.939432        -0.141300
 H        -3.566807         1.508820         0.880095
 H        -1.067244         2.595522         0.076862
 H         0.127007         2.323715         2.543730
 H        -1.188412         3.478183         2.352954
 H        -2.966799         0.029716         3.030360
 H        -0.074896        -0.334071         2.935877
 H        -0.961419        -1.412225         1.854853
