19
Iteration:  3282charge 0 multiplicity 1
 O         0.673455         0.295213         0.220942
 C        -0.562634         0.393356         0.788873
 C        -1.959836        -0.081184         0.066562
 C        -2.534860         0.932269         0.912870
 C        -1.304405         1.866313         0.810685
 C        -1.172812         2.575740         2.199809
 O        -1.812865         1.766629         3.154536
 C        -2.044065         0.483074         2.425813
 C        -0.735190        -0.214318         2.094677
 H         1.248420         0.061314         0.888076
 H        -1.994104         0.381282        -0.905175
 H        -2.311461        -1.106382        -0.005909
 H        -3.551139         1.380876         0.923371
 H        -1.071053         2.631208        -0.156623
 H        -0.057580         2.489612         2.449334
 H        -1.446401         3.607705         2.347456
 H        -2.794621        -0.095222         3.056517
 H         0.063279        -0.037970         2.752632
 H        -0.984152        -1.254689         2.060872
