19
Iteration:  1809
 O         0.683134         0.204683         0.121201
 C        -0.599831         0.462129         0.776245
 C        -1.909790         0.016136        -0.012129
 C        -2.517042         0.999002         1.001116
 C        -1.165517         1.896206         0.875145
 C        -1.161222         2.562300         2.251932
 O        -1.913478         1.727597         3.157057
 C        -2.066406         0.465008         2.444096
 C        -0.761972        -0.196763         2.111200
 H         0.912673        -0.814006         0.339175
 H        -1.882740         0.318880        -1.011250
 H        -2.177839        -1.013774        -0.058232
 H        -3.529621         1.281156         0.872562
 H        -1.295294         2.451565        -0.046528
 H        -0.238435         2.711069         2.762927
 H        -1.737530         3.573289         2.331862
 H        -2.490281        -0.154267         3.160326
 H         0.156601         0.094408         2.764137
 H        -0.746120        -1.298330         2.071434
