19
Iteration:   553charge 0 multiplicity 1
 O         0.632243         0.234047         0.076202
 C        -0.536007         0.422592         0.728467
 C        -1.955489         0.037476         0.030701
 C        -2.385882         1.078858         1.030091
 C        -1.119592         1.870779         0.916129
 C        -1.116195         2.478458         2.302910
 O        -1.957463         1.673296         3.065666
 C        -2.147745         0.507005         2.403929
 C        -0.790552        -0.230600         2.183714
 H         1.268153         0.166895         0.719193
 H        -2.009540         0.367060        -0.960956
 H        -2.485127        -0.985302         0.154839
 H        -3.357547         1.645049         0.859008
 H        -1.041992         2.382965        -0.064545
 H        -0.028139         2.349178         2.818852
 H        -1.521603         3.511328         2.413489
 H        -3.049652        -0.010256         2.750393
 H        -0.020657        -0.094412         2.937946
 H        -0.829339        -1.316612         1.955597
