19
Iteration:   944charge 0 multiplicity 1
 O         0.688365         0.262635         0.160322
 C        -0.524273         0.417315         0.760067
 C        -1.919773         0.078577         0.061697
 C        -2.578880         1.006922         0.959541
 C        -1.228622         1.855354         0.877878
 C        -1.022563         2.513947         2.249754
 O        -1.855389         1.690102         3.146695
 C        -2.257003         0.514212         2.426278
 C        -0.770585        -0.246983         2.072389
 H         1.253742        -0.378931         0.650879
 H        -1.928718         0.564544        -0.891579
 H        -2.178851        -1.035547        -0.171313
 H        -3.572548         1.533508         0.737019
 H        -1.009756         2.439037        -0.068352
 H         0.033835         2.426217         2.785460
 H        -1.357446         3.466907         2.541691
 H        -3.065103         0.049850         2.995637
 H        -0.018498        -0.129601         2.866805
 H        -0.761387        -1.340085         1.760307
