19
Iteration:  1128
 O         0.650475         0.261461         0.140344
 C        -0.604264         0.390384         0.751892
 C        -1.843728         0.077062        -0.036054
 C        -2.459539         1.033636         0.995152
 C        -1.239335         1.882257         0.973178
 C        -1.095518         2.553439         2.260360
 O        -1.802591         1.645156         3.122963
 C        -2.179900         0.508354         2.455899
 C        -0.867092        -0.302289         2.085740
 H         1.315411         0.001139         0.886462
 H        -1.956096         0.509332        -0.990008
 H        -2.171347        -0.994578        -0.032353
 H        -3.427967         1.524878         0.687909
 H        -1.062081         2.362510        -0.011399
 H        -0.072419         2.808845         2.479810
 H        -1.759166         3.586291         2.340810
 H        -2.978014        -0.050492         2.890281
 H        -0.052675        -0.022850         2.780213
 H        -0.823823        -1.438775         1.932516
