19
Iteration:  2570
 O         0.577222         0.278327        -0.025838
 C        -0.542604         0.395283         0.742970
 C        -1.770091        -0.046058         0.045102
 C        -2.475329         0.904931         0.940866
 C        -1.225687         1.822454         0.922897
 C        -1.098650         2.526138         2.238125
 O        -1.916023         1.806097         3.210129
 C        -2.180655         0.506754         2.471408
 C        -0.808952        -0.215984         2.196074
 H         1.318452         0.872748         0.455549
 H        -1.840557         0.263176        -1.044464
 H        -2.019361        -1.235868         0.085568
 H        -3.598868         1.120954         0.816042
 H        -0.948311         2.599958         0.111256
 H        -0.019553         2.590783         2.659533
 H        -1.427592         3.533967         2.130054
 H        -2.888156         0.063885         3.081823
 H        -0.077501         0.009411         2.995081
 H        -0.756607        -1.384108         2.078696
