19
Iteration:  2704charge 0 multiplicity 1
 O         0.747950         0.314356         0.141414
 C        -0.583603         0.463759         0.748595
 C        -1.824378        -0.047972         0.055400
 C        -2.594390         0.869681         1.006412
 C        -1.356830         1.789913         0.893668
 C        -1.027030         2.522857         2.187773
 O        -1.876862         1.763644         3.176344
 C        -2.206600         0.471699         2.457684
 C        -0.749326        -0.081776         2.127645
 H         0.924463        -0.684011        -0.157600
 H        -1.853068         0.348087        -1.029959
 H        -2.257251        -1.035353        -0.039827
 H        -3.447790         1.410125         0.752736
 H        -1.434084         2.486588        -0.017867
 H         0.079313         2.421928         2.431136
 H        -1.212447         3.510551         2.165586
 H        -2.699307        -0.191954         3.195087
 H         0.018735         0.291533         2.804025
 H        -0.846123        -1.148423         2.103718
