19
Iteration:   320
 O         0.727739         0.216438         0.258143
 C        -0.572802         0.420322         0.661127
 C        -1.933590         0.067053        -0.026171
 C        -2.542905         1.064766         0.925990
 C        -1.206383         1.828817         0.901093
 C        -1.054784         2.460342         2.265466
 O        -1.869917         1.687312         3.240205
 C        -2.168670         0.549965         2.374795
 C        -0.837632        -0.209196         2.048735
 H         1.145032        -0.074774         0.995924
 H        -2.010866         0.175863        -1.167983
 H        -2.243276        -0.931735         0.107129
 H        -3.547811         1.553665         0.892678
 H        -0.963645         2.567657         0.092958
 H        -0.059141         2.562582         2.593263
 H        -1.488861         3.518237         2.062909
 H        -2.872039        -0.138563         2.947658
 H         0.041527        -0.069614         2.720013
 H        -0.820481        -1.298905         1.982244
