19
Iteration:  4999
 O         0.708207         0.318351         0.152906
 C        -0.563499         0.457344         0.794742
 C        -1.860858        -0.111389         0.029846
 C        -2.500196         0.967259         1.053937
 C        -1.201849         1.827428         0.859104
 C        -1.187662         2.679487         2.106335
 O        -1.835532         1.739258         3.186598
 C        -2.117991         0.499228         2.459839
 C        -0.839760        -0.281129         2.144654
 H         0.929305        -0.559059         0.076173
 H        -1.946702         0.163578        -1.037717
 H        -2.128067        -1.106869         0.112523
 H        -3.485547         1.396811         0.869793
 H        -1.118237         2.338186        -0.071983
 H        -0.065152         2.918483         2.326164
 H        -1.791062         3.643193         2.005925
 H        -2.776786        -0.097683         3.016384
 H        -0.110861        -0.184383         2.921449
 H        -1.097869        -1.376089         1.985345
