19
Iteration:  1927
 O         0.729114         0.218973         0.155990
 C        -0.613086         0.443324         0.751138
 C        -1.885790         0.063417         0.004944
 C        -2.588443         0.953801         1.037282
 C        -1.292306         1.868111         0.915811
 C        -1.147142         2.555479         2.211270
 O        -1.846992         1.741862         3.136219
 C        -2.081910         0.457575         2.429902
 C        -0.723396        -0.187041         2.108649
 H         1.035493        -0.746149         0.525613
 H        -2.031364         0.369702        -0.964223
 H        -2.224867        -1.036894        -0.043494
 H        -3.607623         1.278932         0.798700
 H        -1.149184         2.453609         0.011242
 H        -0.027881         2.719695         2.431311
 H        -1.493180         3.586203         2.121014
 H        -2.803579        -0.093192         3.042369
 H         0.070045         0.040177         2.846630
 H        -0.790747        -1.287270         2.060046
