19
Iteration:  1042
 O         0.721918         0.281010         0.114510
 C        -0.595551         0.391324         0.736468
 C        -1.854696        -0.002326        -0.076503
 C        -2.574188         1.061365         1.025014
 C        -1.256622         1.820622         0.939717
 C        -1.017757         2.452388         2.368311
 O        -1.905374         1.761253         3.148269
 C        -2.178125         0.502427         2.358156
 C        -0.804512        -0.169359         2.124651
 H         1.069754        -0.688162         0.184594
 H        -1.779678         0.287858        -1.100118
 H        -2.101354        -1.152988         0.110855
 H        -3.473638         1.665158         0.780481
 H        -1.233033         2.469007         0.028682
 H         0.009654         2.369306         2.738328
 H        -1.401633         3.421176         2.503554
 H        -2.724055        -0.055138         3.108031
 H        -0.061080         0.129895         2.870658
 H        -0.890095        -1.283403         1.870896
