19
Iteration:  4884charge 0 multiplicity 1
 O         0.596863         0.222525         0.005077
 C        -0.540587         0.445458         0.739508
 C        -1.856428        -0.040253         0.045262
 C        -2.492680         0.969598         0.965809
 C        -1.195861         1.843274         0.920325
 C        -1.054019         2.517511         2.325933
 O        -1.989430         1.754556         3.117635
 C        -2.127248         0.548598         2.371004
 C        -0.769362        -0.198226         2.235539
 H         1.432978         0.272091         0.573954
 H        -1.912882         0.067480        -1.027878
 H        -2.236614        -1.059104         0.200675
 H        -3.552820         1.278457         0.746195
 H        -1.105280         2.420377        -0.042833
 H        -0.018994         2.385288         2.681712
 H        -1.337321         3.619161         2.535003
 H        -2.837060        -0.062525         2.978392
 H         0.061617         0.193546         2.915998
 H        -0.682099        -1.269146         2.238003
