19
Iteration:  4268
 O         0.674065         0.138606         0.240673
 C        -0.585143         0.444416         0.759593
 C        -1.849985         0.079360        -0.025992
 C        -2.542203         1.050836         1.011041
 C        -1.216887         1.906519         0.927309
 C        -1.188135         2.583878         2.308074
 O        -1.873402         1.671173         3.209806
 C        -2.095237         0.474135         2.359629
 C        -0.733942        -0.247890         2.034329
 H         0.671760         0.043338        -0.796650
 H        -1.686162         0.424518        -1.044466
 H        -2.109538        -0.947938        -0.209680
 H        -3.568483         1.334499         0.959553
 H        -1.014003         2.473024        -0.034632
 H        -0.190802         2.761253         2.623414
 H        -1.753985         3.562388         2.033896
 H        -2.757788        -0.261661         2.844998
 H        -0.013143        -0.012360         2.872254
 H        -0.744093        -1.322081         2.081276
