19
Iteration:  2671charge 0 multiplicity 1
 O         0.643063         0.441932         0.095114
 C        -0.576662         0.392101         0.735770
 C        -1.935903        -0.127399         0.120720
 C        -2.497391         0.970119         1.033050
 C        -1.191382         1.782478         0.945985
 C        -1.073448         2.547248         2.204855
 O        -1.911339         1.758760         3.089514
 C        -2.133259         0.483642         2.381122
 C        -0.756322        -0.222731         2.131216
 H         1.276403        -0.292380         0.404789
 H        -2.005497         0.164506        -1.006284
 H        -2.355519        -1.064511         0.498639
 H        -3.407674         1.414413         0.757525
 H        -1.000303         2.453201         0.002889
 H        -0.000421         2.651210         2.588896
 H        -1.516875         3.460003         2.103541
 H        -2.784020        -0.145397         3.036127
 H         0.010094         0.074225         2.844927
 H        -0.850149        -1.314958         2.189045
