19
Iteration:  3072
 O         0.704903         0.341643         0.103614
 C        -0.583035         0.383201         0.731782
 C        -1.838981        -0.110508         0.012489
 C        -2.518100         0.894747         0.993099
 C        -1.211806         1.862927         0.922652
 C        -1.125938         2.562959         2.266010
 O        -1.919207         1.789873         3.143370
 C        -2.088914         0.519600         2.480616
 C        -0.824465        -0.181216         2.174948
 H         0.814575        -0.535980        -0.465111
 H        -1.862463         0.144253        -1.067778
 H        -2.117975        -1.161076         0.051312
 H        -3.520872         1.246833         0.825092
 H        -1.009530         2.570632        -0.043711
 H         0.008535         2.589317         2.494707
 H        -1.521504         3.538062         2.314095
 H        -2.841027        -0.049299         2.955207
 H         0.009844         0.092521         2.760499
 H        -1.130056        -1.202982         2.261857
