19
Iteration:  1188charge 0 multiplicity 1
 O         0.631948         0.193801        -0.018200
 C        -0.589666         0.474882         0.822842
 C        -1.848008        -0.043950        -0.004818
 C        -2.510058         1.010325         0.926609
 C        -1.195929         1.897319         0.963920
 C        -0.985346         2.527327         2.371664
 O        -1.964870         1.699737         3.135953
 C        -2.151989         0.501971         2.379674
 C        -0.808412        -0.196905         2.174145
 H         1.370839         0.534115         0.355386
 H        -1.799012         0.381124        -1.128661
 H        -2.244383        -1.078225        -0.007239
 H        -3.525852         1.425703         0.926595
 H        -0.996203         2.525304         0.066593
 H         0.083151         2.416024         2.790145
 H        -1.315656         3.535015         2.546566
 H        -2.911037        -0.243798         2.779976
 H        -0.216170        -0.074662         3.138530
 H        -0.946717        -1.261831         2.044754
