19
Iteration:  4669
 O         0.741075         0.318066         0.325729
 C        -0.622514         0.456777         0.667756
 C        -1.843787         0.067649        -0.100744
 C        -2.537927         0.924058         0.955543
 C        -1.360772         1.885953         0.886006
 C        -1.000638         2.515529         2.250912
 O        -1.741358         1.649055         3.247148
 C        -2.163912         0.505829         2.457410
 C        -0.923605        -0.234037         2.076255
 H         0.795831         0.006699        -0.605708
 H        -1.992991         0.440385        -1.134670
 H        -1.961944        -1.112626        -0.026022
 H        -3.527507         1.320707         0.741511
 H        -1.207470         2.533572        -0.032768
 H         0.101358         2.432009         2.407076
 H        -1.377065         3.559930         2.355913
 H        -2.893490        -0.181966         2.986484
 H        -0.119061        -0.164201         2.835868
 H        -1.264336        -1.257355         2.014376
