19
Iteration:  4408
 O         0.735011         0.189381         0.169073
 C        -0.586281         0.416123         0.667263
 C        -1.929617         0.083007        -0.009074
 C        -2.476548         1.075047         1.053631
 C        -1.122865         1.833951         0.919157
 C        -1.212240         2.514281         2.277747
 O        -1.877841         1.715451         3.210746
 C        -2.192558         0.432570         2.394581
 C        -0.749654        -0.271331         2.093618
 H         0.976335         0.581937        -0.598500
 H        -1.851901         0.457512        -1.034422
 H        -2.218374        -1.042067        -0.062598
 H        -3.415845         1.563490         1.045707
 H        -1.069400         2.586451        -0.002142
 H        -0.190515         2.966960         2.616066
 H        -1.909081         3.310041         2.164985
 H        -2.938239        -0.141273         2.945624
 H         0.016069         0.129899         2.885560
 H        -0.768348        -1.392956         2.217906
