19
Iteration:  3697charge 0 multiplicity 1
 O         0.756437         0.222961         0.198467
 C        -0.550996         0.412515         0.776292
 C        -1.868280        -0.050562         0.002370
 C        -2.593047         1.015548         1.002198
 C        -1.283932         1.839667         0.888997
 C        -1.118588         2.523935         2.218963
 O        -1.871170         1.780184         3.150702
 C        -2.155145         0.520431         2.441902
 C        -0.743037        -0.243780         2.128274
 H         0.675786         0.227689        -0.859772
 H        -1.906102         0.376181        -1.003859
 H        -2.136766        -1.207166         0.008010
 H        -3.589292         1.402572         0.946946
 H        -1.193023         2.608539        -0.003886
 H        -0.016923         2.636749         2.519387
 H        -1.573023         3.522032         2.163301
 H        -2.833797         0.007097         3.097611
 H        -0.043530         0.076545         2.918703
 H        -0.683102        -1.405606         2.138635
