19
Iteration:  1597charge 0 multiplicity 1
 O         0.755663         0.441993         0.099744
 C        -0.579468         0.396889         0.691568
 C        -1.945023        -0.061849        -0.005778
 C        -2.493136         0.992808         0.980926
 C        -1.205110         1.764748         0.881512
 C        -0.985060         2.473805         2.290542
 O        -1.882894         1.718342         3.198091
 C        -2.189420         0.534743         2.443849
 C        -0.897951        -0.246561         2.094207
 H         1.275176        -0.178246         0.716065
 H        -1.990265         0.301141        -0.965964
 H        -2.495201        -1.041940         0.096808
 H        -3.446996         1.595138         0.843070
 H        -0.893534         2.403780         0.038138
 H        -0.040045         2.600492         2.832614
 H        -1.558633         3.505081         2.196561
 H        -2.958515        -0.111203         3.013363
 H        -0.166853         0.022350         2.862426
 H        -1.039326        -1.402726         2.085968
