19
Iteration:  1662
 O         0.760800         0.199921         0.112011
 C        -0.492202         0.460506         0.723802
 C        -1.861772         0.038215        -0.031150
 C        -2.525231         1.024211         1.050571
 C        -1.203690         1.843253         0.910547
 C        -1.075514         2.588012         2.233147
 O        -1.965010         1.676786         3.225952
 C        -2.187351         0.463828         2.502448
 C        -0.807047        -0.219273         2.097911
 H         0.632218        -0.237150        -0.661666
 H        -1.948963         0.440711        -0.956855
 H        -2.179543        -0.988418        -0.003139
 H        -3.490470         1.599219         0.918894
 H        -1.176332         2.419314        -0.037041
 H        -0.145631         2.701025         2.645598
 H        -1.678398         3.519272         2.059227
 H        -3.039598        -0.087760         3.024677
 H         0.014432         0.088564         2.731800
 H        -0.776368        -1.359917         2.044467
