19
Iteration:   214charge 0 multiplicity 1
 O         0.690761         0.169227         0.259533
 C        -0.601356         0.478324         0.692717
 C        -1.833105        -0.000988        -0.073568
 C        -2.506852         0.935354         0.940862
 C        -1.210139         1.916865         0.891672
 C        -1.032512         2.475834         2.282994
 O        -1.739956         1.647749         3.203734
 C        -2.239951         0.563132         2.388439
 C        -0.982434        -0.177487         2.155587
 H         1.194867         0.921958         0.235631
 H        -1.999533         0.466764        -1.056520
 H        -2.014783        -1.112010        -0.012328
 H        -3.544508         1.314213         0.722963
 H        -1.131205         2.664299         0.056085
 H         0.094676         2.479749         2.444919
 H        -1.455653         3.427459         2.187610
 H        -3.007247         0.010100         2.892438
 H        -0.210442         0.228456         2.814321
 H        -1.154225        -1.266028         1.977219
