19
Iteration:  3838charge 0 multiplicity 1
 O         0.705663         0.235937         0.174857
 C        -0.562281         0.400770         0.827736
 C        -1.868827        -0.056504         0.022075
 C        -2.552522         1.063976         0.922875
 C        -1.281479         1.923261         0.933737
 C        -1.107315         2.622948         2.289367
 O        -1.842859         1.715548         3.199257
 C        -2.166822         0.480169         2.273464
 C        -0.760129        -0.260991         2.133409
 H         0.770219        -0.530397        -0.408242
 H        -1.915419         0.505493        -0.893584
 H        -2.192750        -1.190813         0.159975
 H        -3.618568         1.269794         0.884737
 H        -1.119497         2.363050        -0.131280
 H         0.025595         2.629741         2.532926
 H        -1.334722         3.643972         2.402707
 H        -2.958005        -0.048654         2.787083
 H        -0.017938        -0.069040         2.859325
 H        -0.744794        -1.365911         2.006727
