19
Iteration:  2480
 O         0.614052         0.259115         0.081646
 C        -0.555219         0.415937         0.781811
 C        -1.766356         0.006326         0.014909
 C        -2.558315         0.936515         1.036002
 C        -1.290260         1.809458         0.885829
 C        -1.228421         2.664356         2.190255
 O        -1.764800         1.701092         3.124267
 C        -2.095873         0.527880         2.470860
 C        -0.819222        -0.257442         2.194832
 H         1.428623        -0.123466         0.582242
 H        -1.753051         0.541074        -0.929867
 H        -2.055853        -1.166504        -0.071200
 H        -3.489689         1.512880         0.912044
 H        -1.220173         2.312828        -0.031838
 H        -0.157735         2.895540         2.427614
 H        -1.784417         3.632106         2.055616
 H        -2.838956        -0.096797         3.033014
 H         0.000138        -0.216543         2.954272
 H        -0.849344        -1.381065         1.890790
