19
Iteration:  4065charge 0 multiplicity 1
 O         0.672074         0.242557         0.199135
 C        -0.592803         0.432796         0.717132
 C        -1.801825        -0.038321         0.027216
 C        -2.519264         0.987607         0.984521
 C        -1.250759         1.861875         0.873081
 C        -1.009980         2.421286         2.312855
 O        -1.882395         1.747944         3.146903
 C        -2.217114         0.508568         2.402244
 C        -0.835656        -0.168730         2.115922
 H         0.930694         1.111884        -0.374858
 H        -1.879288         0.389193        -0.981584
 H        -2.072986        -1.055950        -0.013415
 H        -3.595642         1.289509         0.703633
 H        -1.340557         2.514291         0.028242
 H         0.082666         2.209196         2.575798
 H        -1.078672         3.565204         2.530599
 H        -2.866907        -0.251562         2.900341
 H        -0.099697         0.140960         2.839465
 H        -0.882398        -1.316360         2.076682
