19
Iteration:  2415charge 0 multiplicity 1
 O         0.600104         0.168994         0.109714
 C        -0.604902         0.509534         0.791720
 C        -1.809547        -0.060883        -0.051593
 C        -2.558838         0.858433         0.966528
 C        -1.343263         1.856092         0.878056
 C        -1.031441         2.537250         2.226795
 O        -1.904005         1.768194         3.155208
 C        -2.089067         0.478215         2.464152
 C        -0.699269        -0.073026         2.164977
 H         1.251547         0.493765         0.646666
 H        -1.930434         0.480534        -0.969363
 H        -2.050109        -1.212872         0.040658
 H        -3.568491         1.215661         0.649447
 H        -1.480032         2.487536         0.047967
 H        -0.045704         2.202824         2.701802
 H        -1.116206         3.553222         2.467259
 H        -2.931919        -0.008926         3.017893
 H         0.140738         0.257031         2.743441
 H        -0.671971        -1.224129         2.135370
