19
Iteration:  3896charge 0 multiplicity 1
 O         0.678435         0.203657         0.101810
 C        -0.572674         0.420017         0.762486
 C        -1.862372         0.043817        -0.035460
 C        -2.514401         1.035868         0.954011
 C        -1.299060         1.887947         0.959518
 C        -1.042223         2.598740         2.300119
 O        -1.841047         1.670998         3.087985
 C        -2.112398         0.503001         2.404846
 C        -0.888233        -0.301906         2.216801
 H         1.397692         0.772335         0.631940
 H        -1.877047         0.291990        -1.135582
 H        -2.223008        -1.046668        -0.107320
 H        -3.583733         1.205383         0.739096
 H        -1.220840         2.393054        -0.028349
 H         0.010339         2.563828         2.768238
 H        -1.571601         3.515159         2.305521
 H        -2.756906        -0.047178         3.111144
 H         0.041147         0.009814         2.773196
 H        -1.013965        -1.396018         2.165747
