19
Iteration:  1557
 O         0.658155         0.173346         0.144344
 C        -0.611632         0.497550         0.746892
 C        -1.862553         0.106789        -0.007378
 C        -2.512291         0.984757         1.034885
 C        -1.211108         1.910692         0.913889
 C        -1.054975         2.556754         2.205498
 O        -1.870883         1.603538         3.139029
 C        -2.112665         0.440758         2.447061
 C        -0.837078        -0.177068         2.097147
 H         1.256452         0.239528         0.959574
 H        -1.664697         0.415413        -1.121603
 H        -2.217345        -0.983081        -0.225890
 H        -3.614196         1.253534         0.833237
 H        -1.405715         2.478880        -0.017887
 H         0.025956         2.758854         2.542169
 H        -1.469034         3.504902         2.352620
 H        -2.833435        -0.135224         3.112410
 H        -0.238936        -0.094774         2.999271
 H        -0.902712        -1.206215         1.785854
