19
Iteration:   656
 O         0.721619         0.303535         0.174442
 C        -0.545686         0.357045         0.730714
 C        -1.848485         0.059636        -0.045487
 C        -2.576836         1.033343         0.947376
 C        -1.280661         1.843059         0.919567
 C        -1.018127         2.479505         2.232232
 O        -1.783629         1.743135         3.275634
 C        -2.193308         0.483042         2.443820
 C        -0.965411        -0.271546         2.025974
 H         1.448208        -0.058751         0.870892
 H        -1.887770         0.512506        -1.107186
 H        -2.141395        -0.966741        -0.025241
 H        -3.526359         1.412168         0.675991
 H        -1.028856         2.343363         0.014286
 H         0.113628         2.554875         2.274203
 H        -1.485487         3.620380         2.244680
 H        -3.014831        -0.033823         2.979050
 H        -0.151221        -0.074048         2.782671
 H        -1.086396        -1.354960         2.054411
