19
Iteration:  4239
 O         0.808325         0.276493         0.182154
 C        -0.544604         0.414272         0.678180
 C        -1.932227        -0.014319        -0.005669
 C        -2.521437         1.025765         1.031514
 C        -1.213449         1.845666         0.914378
 C        -1.034143         2.502310         2.321465
 O        -1.941499         1.737147         3.203932
 C        -2.195201         0.467850         2.408011
 C        -0.835718        -0.220366         2.056552
 H         0.837241         0.355148        -0.730441
 H        -1.907874         0.259688        -1.158936
 H        -2.278039        -1.081078        -0.015655
 H        -3.555416         1.483871         0.849266
 H        -1.249769         2.408513         0.041962
 H         0.066368         2.390452         2.614986
 H        -1.386026         3.594992         2.373011
 H        -2.929781        -0.160318         2.999478
 H        -0.194575         0.106075         2.835003
 H        -0.841092        -1.320075         2.180582
