19
Iteration:  4759charge 0 multiplicity 1
 O         0.599471         0.166216         0.095511
 C        -0.586913         0.427451         0.725976
 C        -1.866368         0.012679        -0.039464
 C        -2.538121         0.973380         0.987697
 C        -1.231662         1.938346         0.889506
 C        -0.968989         2.444636         2.361001
 O        -1.980104         1.749771         3.073241
 C        -2.155412         0.405280         2.477443
 C        -0.725210        -0.130865         2.167163
 H         1.266068         0.891720         0.458201
 H        -1.731187         0.555510        -1.077281
 H        -2.153300        -1.168959        -0.153268
 H        -3.455485         1.551564         0.977150
 H        -1.055518         2.648884         0.076988
 H         0.052688         2.203206         2.728455
 H        -1.231371         3.516431         2.541905
 H        -2.939520        -0.120549         3.072541
 H         0.072015         0.147838         2.818941
 H        -0.767483        -1.230877         2.030624
