19
Iteration:   857charge 0 multiplicity 1
 O         0.639030         0.141549         0.088669
 C        -0.543365         0.333459         0.679388
 C        -1.847513         0.017557        -0.099491
 C        -2.495281         1.067816         1.044033
 C        -1.211794         1.888690         0.903092
 C        -1.054121         2.542915         2.349806
 O        -1.900710         1.707271         3.190088
 C        -2.189831         0.522713         2.427856
 C        -0.804207        -0.224589         2.134075
 H         1.179993         0.461805         0.742570
 H        -1.699052         0.493207        -1.012924
 H        -2.224406        -1.047342        -0.197114
 H        -3.495888         1.636056         0.838784
 H        -1.227282         2.744924         0.156976
 H        -0.049694         2.523803         2.682528
 H        -1.597947         3.553697         2.302623
 H        -2.978037        -0.130565         2.819522
 H        -0.059105         0.233249         2.764879
 H        -0.804775        -1.333244         2.186059
