19
Iteration:  3824
 O         0.653740         0.284340         0.175977
 C        -0.561439         0.426539         0.768631
 C        -1.822324         0.019152         0.033319
 C        -2.499496         1.001653         0.968787
 C        -1.220460         1.846458         0.878899
 C        -1.030435         2.518535         2.224550
 O        -1.902188         1.680508         3.153320
 C        -2.165098         0.510723         2.438633
 C        -0.826878        -0.223198         2.161339
 H         0.415405        -0.075678        -0.775172
 H        -1.663355         0.191250        -1.028789
 H        -2.148358        -1.018862         0.146081
 H        -3.425171         1.499575         0.739288
 H        -1.045223         2.501017         0.088836
 H        -0.036295         2.545840         2.582318
 H        -1.523929         3.524184         2.258615
 H        -2.953487        -0.095710         2.937207
 H        -0.157322         0.098699         2.973881
 H        -0.866608        -1.296169         2.137566
