19
Iteration:  4369charge 0 multiplicity 1
 O         0.710910         0.312646         0.240462
 C        -0.557465         0.481269         0.639628
 C        -1.785223        -0.047377        -0.057746
 C        -2.598986         0.939261         0.992847
 C        -1.311733         1.905992         0.899678
 C        -0.985885         2.418763         2.318873
 O        -1.846765         1.724619         3.155995
 C        -2.199748         0.521763         2.460871
 C        -0.848808        -0.270902         2.157126
 H         0.716513         0.468066        -0.781887
 H        -1.973765         0.420464        -1.051362
 H        -1.902715        -1.086325         0.008893
 H        -3.663700         1.365167         0.887654
 H        -1.396252         2.673155         0.221262
 H         0.027676         2.233852         2.491484
 H        -0.999670         3.550302         2.396675
 H        -3.187150         0.177234         2.875924
 H        -0.103976         0.026122         2.807423
 H        -0.781472        -1.302972         1.887022
