19
Iteration:   223
 O         0.639375         0.147455         0.262887
 C        -0.612326         0.453290         0.711025
 C        -1.816985         0.006854        -0.032677
 C        -2.485130         1.080879         0.939834
 C        -1.260842         1.905120         0.833728
 C        -1.055500         2.473567         2.253251
 O        -1.780806         1.632102         3.203020
 C        -2.234743         0.537709         2.389426
 C        -0.864829        -0.216022         2.152172
 H         1.178680         0.890080         0.256335
 H        -1.698793         0.289108        -1.124274
 H        -2.139395        -1.002298        -0.011723
 H        -3.448820         1.497269         0.540997
 H        -1.251392         2.595645        -0.051362
 H         0.010569         2.529344         2.587833
 H        -1.410203         3.575687         2.497669
 H        -3.057207         0.070738         2.981328
 H        -0.104555        -0.003654         2.947690
 H        -0.748364        -1.313116         1.976604
