19
Iteration:  1153charge 0 multiplicity 1
 O         0.759870         0.136511         0.107717
 C        -0.563598         0.425844         0.723206
 C        -1.978798         0.060522        -0.098817
 C        -2.587006         0.996819         0.967902
 C        -1.225381         1.847348         0.953217
 C        -1.070685         2.504149         2.333948
 O        -1.916422         1.715447         3.242768
 C        -2.105986         0.523451         2.407822
 C        -0.806318        -0.174929         2.081106
 H         1.369321         0.456707         0.731903
 H        -1.700702         0.523663        -1.056635
 H        -2.196384        -1.052733        -0.267411
 H        -3.475107         1.542114         0.922112
 H        -1.120487         2.434275         0.111286
 H         0.001584         2.598157         2.567388
 H        -1.535401         3.584091         2.333092
 H        -2.818225        -0.167658         2.909425
 H         0.000903         0.056240         2.835872
 H        -0.866590        -1.301883         1.896887
