19
Iteration:  2932charge 0 multiplicity 1
 O         0.695019         0.287484         0.094726
 C        -0.560748         0.480049         0.727877
 C        -1.829511        -0.081067         0.003676
 C        -2.535820         0.950675         0.990925
 C        -1.330536         1.867926         0.876894
 C        -1.041993         2.533253         2.195958
 O        -1.849025         1.741213         3.222225
 C        -2.180141         0.485803         2.422835
 C        -0.778491        -0.191495         2.160437
 H         1.162325        -0.302744         0.654535
 H        -2.104134        -0.041426        -1.118195
 H        -2.107261        -1.153578         0.208501
 H        -3.503448         1.369989         0.987241
 H        -1.219932         2.638088         0.044765
 H         0.037064         2.538522         2.378425
 H        -1.424862         3.630031         2.280689
 H        -2.983193         0.002695         2.871942
 H        -0.412332         0.216106         3.054661
 H        -0.785359        -1.385016         2.031893
