19
Iteration:  3386
 O         0.690887         0.172034         0.043428
 C        -0.526354         0.424943         0.738672
 C        -1.760256        -0.067081        -0.029450
 C        -2.511916         0.925304         1.077998
 C        -1.358149         1.803194         0.852166
 C        -1.094280         2.510401         2.237539
 O        -1.939369         1.825650         3.132302
 C        -2.142464         0.525110         2.513941
 C        -0.805095        -0.142061         2.157231
 H         1.373470         0.802163         0.420969
 H        -1.750636         0.456934        -1.082449
 H        -2.135251        -1.141362        -0.166001
 H        -3.536972         1.339866         0.903008
 H        -1.468657         2.404756         0.074589
 H        -0.038912         2.158116         2.467046
 H        -1.141314         3.590792         2.450275
 H        -2.838811         0.056270         3.192615
 H        -0.188687         0.377479         2.994742
 H        -0.815477        -1.261535         2.361619
