19
Iteration:  2762charge 0 multiplicity 1
 O         0.747844         0.377934         0.073005
 C        -0.555005         0.359260         0.735325
 C        -1.888987        -0.084788         0.068794
 C        -2.524523         0.941082         1.016812
 C        -1.133495         1.847775         0.846688
 C        -1.191551         2.605241         2.188512
 O        -1.810756         1.668243         3.171291
 C        -2.227397         0.544111         2.428572
 C        -0.804469        -0.213234         2.209368
 H         0.792506        -0.539064        -0.047845
 H        -2.092603         0.256762        -0.921633
 H        -2.300261        -1.081266         0.285699
 H        -3.449691         1.615368         0.994606
 H        -0.979433         2.353351        -0.075570
 H        -0.290764         2.968805         2.729940
 H        -1.841798         3.360710         2.024727
 H        -3.075397        -0.023627         3.045076
 H         0.035420         0.104814         2.893197
 H        -0.772556        -1.236128         2.243614
