19
Iteration:  2344charge 0 multiplicity 1
 O         0.627385         0.214678         0.076085
 C        -0.551127         0.437980         0.765261
 C        -1.850175        -0.077653        -0.019632
 C        -2.512299         0.921283         0.973194
 C        -1.255814         1.835389         0.855836
 C        -1.203277         2.638704         2.214278
 O        -1.729975         1.704956         3.210245
 C        -2.168353         0.527031         2.473680
 C        -0.807882        -0.184295         2.153769
 H         1.322162         0.195335         0.718420
 H        -1.721800         0.378211        -1.030768
 H        -1.994928        -1.116805         0.147996
 H        -3.490227         1.319844         0.742718
 H        -1.234452         2.494987        -0.020840
 H        -0.200458         2.891102         2.462271
 H        -1.915432         3.513190         2.414919
 H        -2.957258         0.062503         3.038743
 H         0.010871         0.122398         2.925132
 H        -0.883205        -1.251966         2.031668
