19
Iteration:  4840charge 0 multiplicity 1
 O         0.740772         0.163907         0.323037
 C        -0.569364         0.410689         0.729273
 C        -1.929347         0.090849        -0.100171
 C        -2.510345         0.949420         1.008711
 C        -1.268471         1.890282         0.921418
 C        -1.199338         2.580904         2.211626
 O        -1.732283         1.711459         3.139312
 C        -2.124835         0.471600         2.470628
 C        -0.812806        -0.267526         2.100871
 H         0.671195         0.230992        -0.726871
 H        -1.994366         0.509825        -1.094774
 H        -2.134506        -0.976760        -0.173273
 H        -3.510044         1.444053         0.902740
 H        -1.214922         2.559844         0.035543
 H        -0.210483         2.952779         2.559568
 H        -1.802455         3.574929         1.969975
 H        -2.937986         0.030789         3.057616
 H        -0.064363         0.009931         2.906506
 H        -0.848528        -1.355930         2.081380
