19
Iteration:  3970charge 0 multiplicity 1
 O         0.724869         0.189569         0.200045
 C        -0.565023         0.429735         0.718807
 C        -1.789691         0.094804         0.018529
 C        -2.624835         1.018650         0.959144
 C        -1.245665         1.821795         0.965263
 C        -1.052289         2.491730         2.264401
 O        -1.936818         1.714626         3.200516
 C        -2.163489         0.508720         2.419030
 C        -0.734130        -0.209156         2.075107
 H         0.500502         0.102960        -0.669336
 H        -1.855426         0.382624        -1.049105
 H        -2.125312        -1.057353        -0.003209
 H        -3.607323         1.506017         0.744502
 H        -1.132146         2.563573         0.014539
 H         0.037494         2.581387         2.506526
 H        -1.513809         3.478156         2.321732
 H        -2.891973         0.028038         3.069194
 H         0.070196        -0.134314         2.782540
 H        -0.882103        -1.286427         1.853241
