19
Iteration:  2601
 O         0.719555         0.198723         0.153032
 C        -0.567789         0.401314         0.681112
 C        -1.941530         0.017026         0.067228
 C        -2.468243         1.011636         0.983453
 C        -1.303588         1.873540         0.852262
 C        -1.195030         2.544504         2.190511
 O        -1.866018         1.675006         3.152920
 C        -2.064077         0.469164         2.468444
 C        -0.723471        -0.142425         2.090947
 H         1.335326         0.405209         0.828426
 H        -2.084606         0.342997        -0.940212
 H        -2.299038        -1.032178         0.375562
 H        -3.548242         1.247589         1.135121
 H        -1.256077         2.581166         0.067733
 H        -0.182133         2.702255         2.497760
 H        -1.751668         3.545371         2.144952
 H        -2.764729        -0.145798         2.986929
 H        -0.076735         0.102164         2.958553
 H        -0.755643        -1.320735         2.046239
