19
Iteration:  4589
 O         0.628116         0.040529         0.059255
 C        -0.513691         0.469552         0.731383
 C        -1.795047         0.103341        -0.009949
 C        -2.446129         1.005205         0.989399
 C        -1.225371         1.949854         0.952202
 C        -1.234627         2.546518         2.352001
 O        -1.885042         1.657713         3.217316
 C        -2.100846         0.471145         2.404301
 C        -0.827126        -0.204735         2.084322
 H         1.121234         0.848453        -0.234246
 H        -1.789172         0.517311        -1.027004
 H        -2.124676        -0.956123        -0.053744
 H        -3.482951         1.422927         0.983347
 H        -1.039149         2.760294         0.233870
 H        -0.196541         2.665411         2.746862
 H        -1.638651         3.469690         2.280987
 H        -2.870538        -0.130560         2.813390
 H        -0.078151        -0.094194         2.864856
 H        -0.972076        -1.269140         1.936908
