19
Iteration:  2145charge 0 multiplicity 1
 O         0.724331         0.349041         0.084128
 C        -0.549009         0.359096         0.692207
 C        -1.985538        -0.039728        -0.013757
 C        -2.564633         0.965560         1.047811
 C        -1.176846         1.760170         0.946634
 C        -1.034131         2.480856         2.201182
 O        -1.929176         1.837552         3.184154
 C        -2.150578         0.521468         2.464227
 C        -0.760758        -0.224250         2.121570
 H         1.320454         0.042333         0.673750
 H        -2.024863         0.128775        -1.044308
 H        -2.145227        -1.127153         0.129939
 H        -3.693475         1.259197         0.964816
 H        -1.112460         2.283705        -0.095185
 H        -0.029205         2.703585         2.617319
 H        -1.594145         3.516811         2.102180
 H        -2.934406         0.005770         3.047739
 H         0.096993         0.148698         2.681484
 H        -0.843777        -1.310338         2.120821
