19
Iteration:  3224charge 0 multiplicity 1
 O         0.616596         0.210820         0.043812
 C        -0.553477         0.408335         0.768742
 C        -1.801128         0.007172         0.061790
 C        -2.559140         0.922108         0.996206
 C        -1.249707         1.841214         0.909285
 C        -1.067889         2.547574         2.255857
 O        -1.999852         1.803221         3.069677
 C        -2.096247         0.487807         2.468729
 C        -0.736071        -0.252411         2.157172
 H         1.459258         0.623170         0.532547
 H        -1.800033         0.322935        -0.996081
 H        -1.915572        -1.019233         0.161166
 H        -3.502377         1.440034         1.086368
 H        -1.256563         2.557509         0.027722
 H        -0.051881         2.486534         2.642307
 H        -1.343889         3.668118         2.150675
 H        -2.797232        -0.076394         3.047494
 H         0.067412         0.052163         2.847598
 H        -0.868009        -1.316409         2.274211
