19
Iteration:  1260charge 0 multiplicity 1
 O         0.642135         0.170224         0.225927
 C        -0.569134         0.434640         0.681709
 C        -1.811008         0.033210        -0.121011
 C        -2.531901         0.980712         1.030682
 C        -1.316613         1.943488         0.879759
 C        -1.069269         2.604050         2.232297
 O        -1.791951         1.652373         3.249683
 C        -2.162007         0.464592         2.445116
 C        -0.860706        -0.182385         2.070595
 H         1.292134        -0.055645         0.793470
 H        -1.884387         0.427326        -1.037556
 H        -1.904221        -1.087047        -0.242400
 H        -3.506710         1.403040         0.964466
 H        -1.265586         2.522478        -0.028996
 H        -0.021839         2.736656         2.439879
 H        -1.490455         3.670391         2.305016
 H        -2.945371        -0.119006         2.913257
 H        -0.087365        -0.179530         2.818291
 H        -0.838372        -1.312882         1.850657
