19
Iteration:  4897
 O         0.610610         0.333491        -0.042867
 C        -0.556230         0.384463         0.821113
 C        -1.836005        -0.072837         0.090644
 C        -2.529126         0.965457         0.963344
 C        -1.185844         1.813601         0.906262
 C        -0.989065         2.469697         2.293347
 O        -2.007877         1.748780         3.104973
 C        -2.185925         0.499317         2.410060
 C        -0.735826        -0.084440         2.212890
 H         1.170988        -0.411007         0.380927
 H        -1.776415         0.338864        -0.860074
 H        -2.027921        -1.083911         0.073909
 H        -3.550770         1.414958         0.822017
 H        -0.905537         2.463352        -0.030633
 H         0.012003         2.265926         2.777407
 H        -1.168027         3.643733         2.182443
 H        -3.004265        -0.166070         2.909246
 H        -0.195479         0.207281         3.155836
 H        -0.884892        -1.178105         2.226696
