19
Iteration:  2603charge 0 multiplicity 1
 O         0.715395         0.194310         0.161192
 C        -0.570831         0.410005         0.674275
 C        -1.935617         0.021041         0.065588
 C        -2.480528         1.012244         0.996491
 C        -1.298055         1.886100         0.851953
 C        -1.209677         2.539465         2.181364
 O        -1.861482         1.683736         3.158682
 C        -2.062819         0.457485         2.469709
 C        -0.704687        -0.152015         2.098904
 H         1.275590         0.364476         0.864024
 H        -2.113271         0.356089        -0.999838
 H        -2.296182        -1.059399         0.330811
 H        -3.575018         1.228797         1.089416
 H        -1.207552         2.627132         0.001288
 H        -0.133027         2.707080         2.457998
 H        -1.720658         3.476950         2.155336
 H        -2.745819        -0.155829         2.960925
 H        -0.135140         0.124342         2.940462
 H        -0.756500        -1.304962         2.028078
