19
Iteration:  4792charge 0 multiplicity 1
 O         0.763854         0.411951         0.103149
 C        -0.563386         0.384923         0.676436
 C        -1.891362        -0.089433         0.021945
 C        -2.555027         1.000250         1.016482
 C        -1.177975         1.830818         0.869119
 C        -0.992889         2.525399         2.270698
 O        -1.854897         1.702465         3.167503
 C        -2.232483         0.498512         2.468930
 C        -0.927193        -0.236818         2.130143
 H         1.323340        -0.031278         0.669772
 H        -2.103681         0.285242        -1.079564
 H        -2.334346        -1.208953        -0.030268
 H        -3.478767         1.569922         0.932739
 H        -1.147407         2.429509        -0.020770
 H         0.074003         2.604733         2.498276
 H        -1.380288         3.564496         2.366110
 H        -3.047099        -0.013457         2.973424
 H        -0.182497        -0.142339         2.885698
 H        -1.073889        -1.338963         2.038462
