19
Iteration:  3378
 O         0.760720         0.167319         0.013658
 C        -0.568905         0.432454         0.724436
 C        -1.819273        -0.067564        -0.023512
 C        -2.543194         0.962297         1.075153
 C        -1.313149         1.830401         0.853622
 C        -1.071587         2.456242         2.187851
 O        -1.985908         1.779584         3.163586
 C        -2.168605         0.535189         2.533171
 C        -0.777790        -0.097862         2.232856
 H         1.450635         0.678250         0.393504
 H        -1.790482         0.364254        -1.053697
 H        -1.945762        -1.142294         0.011179
 H        -3.506013         1.493553         0.820250
 H        -1.497343         2.524514         0.021735
 H        -0.006041         2.328878         2.382279
 H        -1.185270         3.633185         2.278585
 H        -2.867634        -0.103053         3.173231
 H         0.008508         0.199494         2.990008
 H        -0.809124        -1.237404         2.152502
