19
Iteration:  1273
 O         0.716759         0.194075         0.137330
 C        -0.602202         0.498460         0.750143
 C        -1.865136         0.066893        -0.072490
 C        -2.556285         0.922305         0.957077
 C        -1.231397         1.850648         0.919172
 C        -1.096243         2.568946         2.260297
 O        -1.743000         1.651961         3.174287
 C        -2.165103         0.520431         2.432643
 C        -0.878022        -0.213273         2.104957
 H         1.256641         0.045838         1.060458
 H        -1.886684         0.509880        -1.029848
 H        -2.190910        -0.974337        -0.028840
 H        -3.512387         1.337814         0.685531
 H        -1.382401         2.482957         0.082476
 H        -0.108501         2.636703         2.612369
 H        -1.736673         3.576878         2.413376
 H        -2.829315        -0.035955         3.157401
 H        -0.127280         0.095555         2.868913
 H        -1.217414        -1.280189         1.976669
