19
Iteration:  1033charge 0 multiplicity 1
 O         0.681698         0.306107         0.112631
 C        -0.575960         0.428204         0.716458
 C        -1.826773         0.010580         0.017211
 C        -2.576852         1.038417         0.904853
 C        -1.218751         1.776586         0.938455
 C        -1.007885         2.460476         2.360247
 O        -1.924607         1.765883         3.228314
 C        -2.172251         0.499436         2.410887
 C        -0.828242        -0.177370         2.054078
 H         0.978012        -0.683869         0.015450
 H        -1.810266         0.268977        -1.027981
 H        -2.058545        -1.138300         0.070315
 H        -3.573033         1.405476         0.822941
 H        -0.887793         2.438286         0.195624
 H         0.118613         2.574877         2.618933
 H        -1.278368         3.459435         2.165969
 H        -2.965639        -0.091400         2.957211
 H        -0.080538        -0.044211         2.834576
 H        -0.974462        -1.258757         2.079497
