19
Iteration:  3469
 O         0.623412         0.235439         0.189124
 C        -0.598957         0.430332         0.715390
 C        -1.787831         0.009722         0.023421
 C        -2.494995         0.928069         1.060949
 C        -1.263896         1.831690         0.893964
 C        -1.197633         2.594475         2.103304
 O        -1.866022         1.762971         3.150286
 C        -2.062298         0.498186         2.463263
 C        -0.731284        -0.215213         2.143358
 H         0.896333        -0.490361         0.639645
 H        -1.837335         0.531947        -0.867904
 H        -1.934388        -1.036871        -0.102743
 H        -3.509853         1.134919         0.856184
 H        -1.384479         2.421354        -0.153767
 H        -0.138043         2.753418         2.328624
 H        -1.748606         3.631654         2.154096
 H        -2.845526        -0.072378         2.923966
 H         0.086495         0.003202         2.783252
 H        -0.953352        -1.266156         2.178154
