19
Iteration:  1834charge 0 multiplicity 1
 O         0.790692         0.302213         0.149123
 C        -0.575013         0.343219         0.683714
 C        -1.933985         0.000409         0.034298
 C        -2.542693         1.027312         1.059360
 C        -1.231902         1.747659         0.902271
 C        -1.069964         2.549125         2.217473
 O        -1.937440         1.728790         3.183685
 C        -2.190221         0.552730         2.418349
 C        -0.714766        -0.184653         2.100188
 H         1.017742        -0.609431        -0.041516
 H        -2.129493         0.498426        -1.049444
 H        -2.338269        -0.983481        -0.191110
 H        -3.552771         1.401255         0.862923
 H        -1.354604         2.345307        -0.042022
 H        -0.163124         2.675285         2.772933
 H        -1.559918         3.498712         2.334438
 H        -2.746380        -0.111989         3.090321
 H         0.182796         0.112080         2.696740
 H        -0.796781        -1.238765         2.267999
