19
Iteration:  1060
 O         0.696419         0.277368         0.163719
 C        -0.579342         0.449511         0.687900
 C        -1.952432         0.082634         0.006629
 C        -2.457805         0.963830         0.968863
 C        -1.206320         1.888096         0.879270
 C        -0.994709         2.480174         2.252657
 O        -1.958371         1.686529         3.183308
 C        -2.148145         0.452152         2.428565
 C        -0.811999        -0.214630         2.142381
 H         1.108499        -0.613397         0.509925
 H        -2.064708         0.644075        -0.963204
 H        -2.223714        -0.921230        -0.037259
 H        -3.582315         1.190494         0.906544
 H        -0.936188         2.660596         0.035721
 H         0.073718         2.379536         2.523864
 H        -1.308602         3.702901         2.286767
 H        -3.053121        -0.011548         2.845806
 H        -0.047398         0.183772         2.824329
 H        -0.862776        -1.348643         2.131559
