19
Iteration:   669
 O         0.715972         0.267358         0.168930
 C        -0.593590         0.453098         0.756794
 C        -1.834592         0.036501        -0.031477
 C        -2.575790         0.984615         0.989966
 C        -1.285460         1.856654         0.897753
 C        -1.034838         2.496840         2.288762
 O        -1.785845         1.673233         3.110999
 C        -2.185614         0.598511         2.414799
 C        -0.888838        -0.292854         2.107024
 H         1.231150        -0.177209         0.770965
 H        -1.818073         0.565756        -1.007223
 H        -2.073177        -1.031448        -0.139505
 H        -3.522756         1.409282         0.843548
 H        -1.292168         2.554445         0.088045
 H        -0.032898         2.339827         2.650824
 H        -1.269281         3.692663         2.458243
 H        -2.838015         0.089689         3.035993
 H        -0.161669        -0.294381         2.937881
 H        -1.213809        -1.288656         1.806908
