19
Iteration:  1815charge 0 multiplicity 1
 O         0.730878         0.201079         0.139149
 C        -0.582724         0.447342         0.738300
 C        -1.982656         0.040592        -0.024796
 C        -2.481142         0.967961         1.040722
 C        -1.176026         1.904900         0.905969
 C        -1.184907         2.548642         2.256474
 O        -1.932538         1.747848         3.138649
 C        -2.043053         0.449119         2.441521
 C        -0.761599        -0.199511         2.130717
 H         0.912391        -0.692294         0.217689
 H        -1.999481         0.361692        -1.141568
 H        -2.236479        -1.076932        -0.019615
 H        -3.546333         1.370495         0.965267
 H        -1.214136         2.472093        -0.038977
 H        -0.114396         2.786456         2.641256
 H        -1.575019         3.558286         2.174642
 H        -2.711234        -0.219532         3.142803
 H         0.009353         0.170715         2.735030
 H        -0.647156        -1.309342         2.025009
