19
Iteration:   648
 O         0.724142         0.316110         0.167055
 C        -0.626743         0.389890         0.714946
 C        -1.907240         0.027924        -0.118630
 C        -2.506248         1.016688         0.950399
 C        -1.192462         1.830300         0.905008
 C        -0.986238         2.551126         2.213485
 O        -1.795999         1.720365         3.305437
 C        -2.264501         0.452932         2.440610
 C        -0.910720        -0.298096         2.082977
 H         1.186195         0.099664         1.050615
 H        -1.860340         0.452868        -1.110047
 H        -2.341941        -0.990806         0.007363
 H        -3.463562         1.464507         0.879392
 H        -0.892056         2.453899         0.060677
 H         0.032696         2.702020         2.392755
 H        -1.534963         3.562112         2.041375
 H        -2.965574        -0.082118         2.972031
 H        -0.193833         0.007478         2.846462
 H        -0.980282        -1.394114         2.046628
