19
Iteration:   721
 O         0.755910         0.243267         0.030194
 C        -0.532613         0.409763         0.717536
 C        -1.986384        -0.011124        -0.088719
 C        -2.456900         1.024473         0.948664
 C        -1.113872         1.861468         0.891055
 C        -1.035156         2.512407         2.334706
 O        -1.963030         1.726402         3.227303
 C        -2.205477         0.474450         2.439824
 C        -0.865260        -0.165869         2.238901
 H         1.113641        -0.610023         0.004569
 H        -2.045643         0.502310        -1.108033
 H        -2.335942        -0.996435         0.014097
 H        -3.410502         1.432550         0.814378
 H        -0.994445         2.645026         0.194729
 H        -0.034198         2.547446         2.865676
 H        -1.457632         3.487669         2.243180
 H        -3.022778        -0.134761         2.868254
 H        -0.134724         0.112156         3.045049
 H        -0.909580        -1.256296         2.164602
