19
Iteration:  4533
 O         0.684370         0.327913         0.085535
 C        -0.589562         0.439759         0.745877
 C        -1.858183         0.057770        -0.041581
 C        -2.536247         1.005527         0.953158
 C        -1.253622         1.843683         0.904165
 C        -1.029371         2.591033         2.274133
 O        -1.841020         1.622810         3.232694
 C        -2.198484         0.467673         2.457765
 C        -0.836497        -0.280498         2.108827
 H         1.237472        -0.148464         0.608056
 H        -1.832516         0.369487        -1.109132
 H        -2.097356        -0.967881         0.088379
 H        -3.486913         1.604630         0.744190
 H        -1.026954         2.512710         0.084097
 H        -0.029247         2.518636         2.742980
 H        -1.401787         3.583492         2.238138
 H        -3.008893        -0.084041         2.972965
 H        -0.093121        -0.249296         2.871288
 H        -1.026893        -1.339821         1.850310
