19
Iteration:   933
 O         0.625547         0.292951         0.120094
 C        -0.642824         0.447822         0.743437
 C        -1.864350         0.007608        -0.025784
 C        -2.454490         1.087166         1.036511
 C        -1.163121         1.838795         0.865222
 C        -1.046103         2.477547         2.298543
 O        -1.888304         1.680258         3.127492
 C        -2.159434         0.493333         2.403406
 C        -0.831248        -0.263464         2.145234
 H         1.218350        -0.070122         0.919912
 H        -1.758567         0.427921        -0.994228
 H        -2.402319        -1.020557        -0.020295
 H        -3.473649         1.556300         0.811776
 H        -1.111797         2.474560        -0.072412
 H         0.080658         2.484573         2.673027
 H        -1.369393         3.529497         2.261356
 H        -2.949747        -0.085842         2.877105
 H        -0.079307        -0.040910         2.920640
 H        -0.909140        -1.382255         2.070417
