19
Iteration:   413
 O         0.716698         0.071726         0.088849
 C        -0.591469         0.402481         0.735877
 C        -1.901026         0.062028        -0.039799
 C        -2.537226         1.021798         1.017643
 C        -1.107917         1.874049         0.905076
 C        -1.070752         2.503067         2.344357
 O        -2.054838         1.701681         3.164157
 C        -2.142055         0.541517         2.441151
 C        -0.735023        -0.119195         2.045476
 H         1.518480         0.235276         0.766706
 H        -1.836323         0.563452        -0.970689
 H        -2.353838        -0.950534        -0.224338
 H        -3.466897         1.599147         0.869918
 H        -0.993565         2.561555         0.070118
 H        -0.031017         2.376104         2.797233
 H        -1.451860         3.617928         2.516996
 H        -2.907951        -0.091891         2.926470
 H         0.018860        -0.014561         2.819539
 H        -0.961027        -1.198494         1.989340
