19
Iteration:  3815
 O         0.688415         0.272251         0.141792
 C        -0.570591         0.453830         0.757766
 C        -1.867806        -0.030535        -0.034354
 C        -2.487530         0.992475         0.993184
 C        -1.141041         1.831129         0.921211
 C        -1.083782         2.431463         2.247682
 O        -1.895472         1.718792         3.106861
 C        -2.208761         0.513823         2.488143
 C        -0.856008        -0.157122         2.195677
 H         0.708214         0.341894        -0.916586
 H        -1.869963         0.426996        -1.004164
 H        -2.009740        -1.144048         0.176901
 H        -3.443535         1.425145         0.788952
 H        -1.020235         2.455969         0.014401
 H        -0.078038         2.533617         2.729024
 H        -1.398813         3.451914         2.177251
 H        -2.851594        -0.013830         3.192860
 H        -0.067102        -0.004120         2.879595
 H        -0.965360        -1.243031         2.167854
