19
Iteration:  2373charge 0 multiplicity 1
 O         0.665869         0.272801         0.022666
 C        -0.515272         0.387129         0.784128
 C        -1.982312        -0.111449         0.079409
 C        -2.475480         1.016894         1.046180
 C        -1.176143         1.801725         0.885572
 C        -1.192555         2.619751         2.239199
 O        -1.905092         1.730565         3.108864
 C        -2.151500         0.536536         2.417796
 C        -0.692530        -0.255623         2.160318
 H         1.552051         0.437422         0.608928
 H        -1.857082         0.203521        -0.908686
 H        -2.292790        -1.167962         0.317890
 H        -3.457863         1.689573         1.032315
 H        -1.100621         2.394602        -0.161126
 H        -0.128400         2.828052         2.625288
 H        -1.781466         3.510339         2.229211
 H        -2.938645        -0.029139         2.979996
 H        -0.042927         0.004223         2.909613
 H        -0.792091        -1.357907         1.915924
