19
Iteration:  3108
 O         0.683500         0.422404         0.221829
 C        -0.598273         0.423775         0.684143
 C        -1.910097        -0.078057         0.063755
 C        -2.545434         0.938608         1.010838
 C        -1.290682         1.824964         0.832203
 C        -1.012314         2.450671         2.180234
 O        -1.859731         1.708771         3.088377
 C        -2.132098         0.479610         2.436417
 C        -0.833624        -0.106887         2.161690
 H         1.198597        -0.478571         0.400933
 H        -1.897830         0.243192        -1.025416
 H        -2.114037        -1.174943         0.341400
 H        -3.561864         1.372599         0.934186
 H        -0.938092         2.494799        -0.014010
 H         0.085037         2.402293         2.519324
 H        -1.318476         3.496499         2.306678
 H        -2.867243        -0.030724         3.110593
 H         0.025734         0.148398         2.809516
 H        -0.822250        -1.247472         2.229411
