19
Iteration:  3481
 O         0.762771         0.257426         0.152759
 C        -0.535513         0.384383         0.760496
 C        -1.930717        -0.014564         0.013769
 C        -2.584691         0.865888         1.043303
 C        -1.327677         1.851748         0.860596
 C        -1.107983         2.649341         2.168256
 O        -1.910695         1.749495         3.125932
 C        -2.094879         0.534102         2.443583
 C        -0.718830        -0.217662         2.173203
 H         1.237412        -0.632694         0.428406
 H        -1.999660         0.462341        -0.925431
 H        -2.262181        -1.020847        -0.156754
 H        -3.589266         1.253128         1.059986
 H        -1.154422         2.521875        -0.099925
 H        -0.109368         2.740765         2.621715
 H        -1.575896         3.679875         2.005902
 H        -2.740778        -0.040502         3.074197
 H         0.008286         0.073499         2.899019
 H        -0.738810        -1.275550         2.086511
