19
Iteration:  1711
 O         0.693134         0.205398         0.164636
 C        -0.520110         0.455375         0.662951
 C        -1.835859         0.010156         0.027940
 C        -2.574729         0.955817         1.028391
 C        -1.251381         1.819071         0.883071
 C        -1.109331         2.456881         2.250205
 O        -1.808181         1.738708         3.231444
 C        -2.203005         0.480777         2.396398
 C        -0.860122        -0.152698         2.122408
 H         1.229672         1.000915        -0.268141
 H        -1.863055         0.409802        -1.050823
 H        -2.183777        -1.048710         0.035971
 H        -3.453300         1.447864         0.722987
 H        -1.180322         2.506276         0.043516
 H        -0.017608         2.383315         2.565913
 H        -1.430153         3.481121         2.147908
 H        -2.891549        -0.006035         3.001863
 H        -0.141021         0.133387         2.948453
 H        -0.869039        -1.216987         2.077016
