19
Iteration:  2898
 O         0.660786         0.133786         0.122831
 C        -0.582077         0.374953         0.686906
 C        -1.906804         0.009314        -0.111446
 C        -2.489388         0.956530         1.043441
 C        -1.233586         1.827835         0.939300
 C        -1.194462         2.609805         2.237715
 O        -1.920243         1.775773         3.198750
 C        -2.054138         0.510864         2.450174
 C        -0.703212        -0.188417         2.107700
 H         1.235309         0.199459         0.822451
 H        -1.976118         0.579695        -1.089557
 H        -2.085082        -1.088740        -0.084220
 H        -3.478655         1.369611         1.096353
 H        -1.112965         2.533583         0.035916
 H        -0.196363         2.936836         2.556931
 H        -1.860828         3.480576         2.233421
 H        -2.703414        -0.022216         3.037037
 H         0.033993         0.103194         2.812314
 H        -0.638151        -1.352400         2.195978
