19
Iteration:  3031
 O         0.754352         0.201758         0.099301
 C        -0.529538         0.357060         0.763608
 C        -1.886564        -0.022624         0.035059
 C        -2.493137         1.012868         1.000620
 C        -1.276907         1.913793         0.905213
 C        -1.245960         2.622428         2.219632
 O        -1.867512         1.690291         3.133061
 C        -2.090963         0.501704         2.424843
 C        -0.765325        -0.178181         2.203094
 H         0.679766        -0.565360        -0.369823
 H        -1.908247         0.405657        -1.053763
 H        -2.245397        -1.117305         0.053698
 H        -3.558484         1.175080         0.944159
 H        -1.138892         2.575839         0.008452
 H        -0.259108         2.780441         2.753304
 H        -1.672843         3.663793         2.206233
 H        -2.669171        -0.083230         3.148322
 H        -0.018027         0.265669         2.859875
 H        -0.827877        -1.348100         2.119685
