19
Iteration:  1199
 O         0.598478         0.264215        -0.022974
 C        -0.487982         0.356551         0.785100
 C        -1.838990        -0.007070         0.014799
 C        -2.523310         1.058254         0.903880
 C        -1.225190         1.809285         0.986187
 C        -1.046813         2.486251         2.372069
 O        -1.942178         1.701494         3.160370
 C        -2.202861         0.557080         2.390661
 C        -0.787322        -0.204084         2.164597
 H         1.459580         0.453354         0.465687
 H        -1.752053         0.297846        -1.159838
 H        -2.288878        -1.009161         0.123456
 H        -3.477188         1.491222         0.558394
 H        -0.851466         2.424561         0.133782
 H         0.011504         2.369436         2.812839
 H        -1.292992         3.556395         2.372157
 H        -2.943452         0.067744         3.101625
 H         0.063414        -0.006342         2.916740
 H        -0.983638        -1.265115         2.075502
