19
Iteration:  1185charge 0 multiplicity 1
 O         0.624425         0.174731        -0.007920
 C        -0.593439         0.486237         0.787157
 C        -1.855469        -0.015472        -0.003743
 C        -2.506024         0.991102         0.955347
 C        -1.162697         1.940069         0.939981
 C        -0.986656         2.506624         2.367211
 O        -1.968191         1.709626         3.141918
 C        -2.144733         0.478999         2.375700
 C        -0.829033        -0.212222         2.182784
 H         1.410652         0.627119         0.456560
 H        -1.767365         0.340735        -1.009109
 H        -2.127498        -1.131571         0.004472
 H        -3.472337         1.403308         0.979090
 H        -1.106099         2.540093         0.094700
 H         0.033742         2.379139         2.696000
 H        -1.393352         3.641880         2.544080
 H        -2.921266        -0.220963         2.719439
 H        -0.226050         0.021244         3.110962
 H        -0.894653        -1.348555         2.011245
