19
Iteration:  2999charge 0 multiplicity 1
 O         0.714426         0.294014         0.217883
 C        -0.537752         0.455545         0.726725
 C        -1.851802        -0.067115         0.025394
 C        -2.572566         0.916435         1.014821
 C        -1.308467         1.847829         0.890830
 C        -1.085490         2.523674         2.188035
 O        -1.844318         1.748454         3.206549
 C        -2.118077         0.508185         2.400338
 C        -0.829469        -0.109597         2.098084
 H         0.794113        -0.577895        -0.354670
 H        -1.953896         0.256787        -1.078941
 H        -2.181279        -1.157952        -0.030655
 H        -3.621721         1.136043         0.827654
 H        -1.065660         2.457707         0.023469
 H        -0.090906         2.434260         2.617897
 H        -1.477915         3.632745         2.075825
 H        -2.714358        -0.071786         3.138478
 H        -0.049312         0.139255         2.852800
 H        -0.810258        -1.310326         2.026130
