19
Iteration:  1441charge 0 multiplicity 1
 O         0.727380         0.257155         0.216905
 C        -0.599940         0.461627         0.727141
 C        -1.933140         0.040269        -0.013047
 C        -2.568757         1.042169         0.993244
 C        -1.307548         1.871921         0.851147
 C        -1.027886         2.525061         2.269816
 O        -1.847551         1.610950         3.132368
 C        -2.095751         0.516174         2.417915
 C        -0.817660        -0.239816         2.080621
 H         1.342949         0.070236         1.010524
 H        -2.004203         0.525397        -1.043420
 H        -2.114038        -0.979402        -0.128590
 H        -3.607734         1.356621         0.998373
 H        -1.135872         2.304308        -0.164519
 H         0.030789         2.619845         2.474978
 H        -1.496911         3.565076         2.513367
 H        -2.786368        -0.122179         2.908896
 H        -0.096767        -0.004090         2.930300
 H        -0.896578        -1.326693         1.998330
