19
Iteration:  1058
 O         0.699854         0.279949         0.155259
 C        -0.568559         0.447881         0.685371
 C        -1.942363         0.057468        -0.001411
 C        -2.468947         0.968349         0.974886
 C        -1.204298         1.905471         0.887295
 C        -1.005789         2.499767         2.262167
 O        -1.954771         1.672643         3.163311
 C        -2.159343         0.470483         2.448621
 C        -0.811854        -0.222225         2.135982
 H         1.091792        -0.672091         0.502735
 H        -2.045937         0.602160        -1.000766
 H        -2.266610        -0.915855        -0.080812
 H        -3.517525         1.247585         0.951102
 H        -1.039563         2.628276         0.068779
 H         0.095738         2.324011         2.556726
 H        -1.221371         3.662347         2.314758
 H        -3.082840        -0.028454         2.834373
 H        -0.055588         0.170059         2.830184
 H        -0.842402        -1.275039         2.221196
