19
Iteration:   642charge 0 multiplicity 1
 O         0.705445         0.310750         0.188668
 C        -0.666694         0.410453         0.692218
 C        -1.945634         0.011945        -0.116139
 C        -2.486039         1.021223         0.969685
 C        -1.130538         1.799223         0.908442
 C        -1.016335         2.578489         2.213334
 O        -1.793978         1.688290         3.252714
 C        -2.238780         0.487395         2.405391
 C        -0.871607        -0.303777         2.140115
 H         1.180559         0.200969         0.941606
 H        -1.928451         0.381556        -1.159800
 H        -2.354337        -1.018614        -0.192976
 H        -3.500296         1.579137         0.921139
 H        -1.001084         2.515811         0.048617
 H         0.014678         2.765742         2.759774
 H        -1.498058         3.535562         2.143850
 H        -3.046601        -0.084386         3.026740
 H        -0.157852        -0.014623         2.931683
 H        -0.916584        -1.398795         1.971479
