19
Iteration:  3659
 O         0.711548         0.188029         0.131068
 C        -0.603726         0.473195         0.707248
 C        -1.854290        -0.082116         0.051323
 C        -2.622069         0.966348         1.071269
 C        -1.242832         1.828563         0.905521
 C        -1.053934         2.449853         2.235825
 O        -1.909958         1.795276         3.092293
 C        -2.148250         0.511244         2.428045
 C        -0.754285        -0.168135         2.150476
 H         1.212054         1.078032         0.177986
 H        -1.859338         0.155165        -1.049752
 H        -2.111773        -1.086514         0.229921
 H        -3.641366         1.458701         0.821150
 H        -1.212891         2.448840         0.119306
 H        -0.005148         2.482612         2.674135
 H        -1.319756         3.541993         2.120360
 H        -2.979367        -0.088861         2.921041
 H         0.099511         0.189607         2.792805
 H        -0.554299        -1.157636         2.034210
