19
Iteration:  3950charge 0 multiplicity 1
 O         0.697053         0.246414         0.195340
 C        -0.574324         0.388324         0.708292
 C        -1.970540        -0.002874        -0.066567
 C        -2.435971         1.017215         1.072606
 C        -1.145404         1.884389         0.927407
 C        -1.046340         2.518621         2.307744
 O        -1.997829         1.715896         3.074437
 C        -2.088791         0.454772         2.384055
 C        -0.828587        -0.215874         2.192679
 H         0.681425         0.654365        -0.743352
 H        -1.991543         0.501627        -1.096726
 H        -2.367209        -1.139029        -0.126526
 H        -3.461309         1.369484         1.193475
 H        -1.170492         2.516293        -0.031051
 H         0.032792         2.331896         2.726121
 H        -1.176668         3.544528         2.507389
 H        -2.826755        -0.101182         2.969584
 H        -0.028174         0.181753         2.851526
 H        -0.696828        -1.286489         2.133851
