19
Iteration:  3727charge 0 multiplicity 1
 O         0.709809         0.298240         0.165245
 C        -0.542275         0.369032         0.769887
 C        -1.927708        -0.043633        -0.025802
 C        -2.498584         0.966373         0.984970
 C        -1.182650         1.887295         0.874497
 C        -1.179336         2.585366         2.217400
 O        -1.881571         1.745226         3.165980
 C        -2.059282         0.551128         2.456984
 C        -0.797140        -0.273847         2.152160
 H         0.782237        -0.564469        -0.176479
 H        -1.956043         0.465523        -0.967272
 H        -2.257438        -1.119225        -0.045212
 H        -3.522580         1.276584         1.011701
 H        -1.080503         2.449382        -0.017880
 H        -0.174505         2.922561         2.656561
 H        -1.742873         3.474985         2.071380
 H        -2.791619        -0.024070         3.048460
 H        -0.027037        -0.267870         2.893590
 H        -1.126199        -1.294277         2.079418
