19
Iteration:  1087charge 0 multiplicity 1
 O         0.716865         0.303679         0.146191
 C        -0.583582         0.400911         0.701597
 C        -1.896153        -0.000639        -0.061807
 C        -2.499244         1.020808         0.964270
 C        -1.246274         1.829364         0.964248
 C        -1.089988         2.601621         2.298847
 O        -1.819057         1.645981         3.139102
 C        -2.185492         0.536932         2.461237
 C        -0.867469        -0.290858         2.079498
 H         1.294204        -0.351381         0.673405
 H        -1.736897         0.460077        -1.024334
 H        -2.179008        -1.153429        -0.074998
 H        -3.365884         1.632384         0.922529
 H        -1.222865         2.519268         0.172205
 H        -0.043082         2.553386         2.621682
 H        -1.451629         3.585890         2.331860
 H        -3.026443         0.189299         3.096887
 H        -0.060153         0.113979         2.728479
 H        -1.049592        -1.413713         2.100257
