19
Iteration:  4928
 O         0.773679         0.294275         0.203103
 C        -0.575716         0.377644         0.727738
 C        -1.920090        -0.085411         0.005188
 C        -2.533715         0.894789         0.962640
 C        -1.255996         1.831106         0.880419
 C        -1.038056         2.583529         2.258393
 O        -1.932549         1.796524         3.156750
 C        -2.117197         0.510750         2.449208
 C        -0.783524        -0.180352         2.135930
 H         0.698799         0.203162        -0.732732
 H        -2.190676         0.172228        -1.012517
 H        -2.104157        -1.187003        -0.019283
 H        -3.548211         1.371875         0.897490
 H        -1.073250         2.449239        -0.067177
 H        -0.048056         2.515713         2.679689
 H        -1.377597         3.677522         2.327655
 H        -2.916024        -0.062924         3.032983
 H        -0.045964        -0.044912         2.996540
 H        -1.051380        -1.220433         2.123282
