19
Iteration:  4160charge 0 multiplicity 1
 O         0.716822         0.175532         0.268280
 C        -0.609693         0.408561         0.678845
 C        -1.864083        -0.047274        -0.139496
 C        -2.501040         1.072032         1.029525
 C        -1.208870         1.920340         0.895450
 C        -1.155337         2.628407         2.275889
 O        -1.826940         1.656909         3.243670
 C        -2.113648         0.447153         2.428523
 C        -0.825884        -0.247316         2.095810
 H         0.777207         0.586507        -0.625973
 H        -2.012083         0.395361        -1.193204
 H        -2.017305        -1.132938        -0.002479
 H        -3.520057         1.438973         0.885353
 H        -1.157527         2.441657        -0.001992
 H        -0.192131         2.923919         2.715840
 H        -1.650493         3.593780         2.102994
 H        -2.956154         0.000444         2.959898
 H        -0.037130         0.036502         2.811177
 H        -1.018114        -1.285918         2.006666
