19
Iteration:  3858
 O         0.758917         0.232689         0.174629
 C        -0.583491         0.428827         0.674536
 C        -1.867313         0.022829        -0.039039
 C        -2.524563         1.007276         0.981472
 C        -1.188635         1.867327         0.909212
 C        -1.126937         2.562719         2.248274
 O        -1.861161         1.659688         3.180607
 C        -2.099085         0.516092         2.503382
 C        -0.871075        -0.201641         2.074867
 H         0.955247        -0.787881         0.434805
 H        -2.068158         0.397832        -1.063631
 H        -2.275283        -1.009158         0.146961
 H        -3.496331         1.475936         0.896283
 H        -1.319478         2.544486         0.027518
 H        -0.165392         2.914870         2.580782
 H        -1.757774         3.491596         2.226110
 H        -2.907725         0.009946         3.030063
 H        -0.113957         0.036973         2.793405
 H        -0.967943        -1.284193         2.023040
