19
Iteration:  3937charge 0 multiplicity 1
 O         0.748653         0.253662         0.148503
 C        -0.599087         0.316094         0.665366
 C        -1.926765         0.014551        -0.038993
 C        -2.543174         1.010257         0.964394
 C        -1.199897         1.804400         0.937504
 C        -0.977449         2.478224         2.349970
 O        -1.989795         1.726564         3.157783
 C        -2.169615         0.518746         2.436948
 C        -0.731874        -0.169248         2.139502
 H         0.820002         1.053828        -0.432255
 H        -2.028651         0.275719        -1.114246
 H        -2.305840        -1.110388         0.135582
 H        -3.465614         1.632892         0.839039
 H        -1.081209         2.582118         0.029743
 H         0.077562         2.371487         2.746874
 H        -1.363681         3.503919         2.358104
 H        -2.934507        -0.120951         2.895339
 H        -0.002469         0.171564         2.839802
 H        -0.976949        -1.218726         2.359059
