19
Iteration:  2880charge 0 multiplicity 1
 O         0.714123         0.138993        -0.016647
 C        -0.520089         0.392049         0.753226
 C        -1.810517         0.012106         0.051114
 C        -2.515219         0.963517         1.003743
 C        -1.216242         1.837300         0.893345
 C        -1.210322         2.648845         2.217145
 O        -1.885613         1.761733         3.211880
 C        -2.150632         0.454257         2.498331
 C        -0.801749        -0.215379         2.128722
 H         1.383258         0.561534         0.412844
 H        -1.870350         0.510777        -0.935850
 H        -2.321713        -0.933345         0.046655
 H        -3.459841         1.434844         0.737421
 H        -1.186330         2.454199         0.040388
 H        -0.285483         2.777195         2.775399
 H        -1.841486         3.651184         2.081248
 H        -2.981178        -0.128373         3.065499
 H         0.014139        -0.031684         2.937808
 H        -0.901520        -1.318940         2.174853
