19
Iteration:  2773charge 0 multiplicity 1
 O         0.698389         0.330513         0.078271
 C        -0.542060         0.433840         0.776626
 C        -1.920685        -0.103881         0.048148
 C        -2.479662         0.993962         0.991914
 C        -1.189501         1.842637         0.857391
 C        -1.152801         2.633031         2.184374
 O        -1.806508         1.658874         3.156941
 C        -2.166013         0.466529         2.470873
 C        -0.842989        -0.172823         2.217445
 H         1.121159        -0.482941         0.030469
 H        -1.930450         0.173751        -0.994388
 H        -2.090049        -1.183799         0.048388
 H        -3.493703         1.352939         0.619846
 H        -1.309105         2.439046        -0.003624
 H        -0.143005         2.880939         2.589694
 H        -1.682338         3.482517         2.216693
 H        -3.039946        -0.108588         3.018721
 H        -0.152670         0.194065         3.026392
 H        -0.914806        -1.185030         2.135813
