19
Iteration:  3548charge 0 multiplicity 1
 O         0.729988         0.377337         0.089056
 C        -0.541988         0.388786         0.747058
 C        -1.832053        -0.075815        -0.025156
 C        -2.516629         0.920822         1.057497
 C        -1.282432         1.795682         0.869151
 C        -1.041542         2.478437         2.150510
 O        -1.907404         1.801394         3.143950
 C        -2.173807         0.555397         2.498529
 C        -0.828605        -0.218925         2.254665
 H         1.124200        -0.466711         0.029849
 H        -2.074388         0.242413        -1.059761
 H        -2.091109        -1.121615         0.024032
 H        -3.550881         1.337825         0.841156
 H        -1.361931         2.478746        -0.024407
 H         0.032807         2.608924         2.440644
 H        -1.512708         3.512645         2.119217
 H        -2.999239         0.057491         3.026276
 H        -0.109385         0.130461         3.010722
 H        -0.905738        -1.256780         2.249963
