19
Iteration:  4001charge 0 multiplicity 1
 O         0.708224         0.200450         0.261844
 C        -0.553376         0.432530         0.685778
 C        -1.898492         0.035507        -0.043557
 C        -2.477150         0.971524         0.944889
 C        -1.186479         1.918516         0.920410
 C        -1.155060         2.594003         2.300071
 O        -1.771503         1.655065         3.171971
 C        -2.192593         0.483861         2.381423
 C        -0.838122        -0.287613         2.183246
 H         0.692765         0.223556        -0.801892
 H        -2.067236         0.562661        -0.943922
 H        -2.207784        -0.996554         0.088037
 H        -3.513417         1.351616         0.678200
 H        -1.213389         2.652660        -0.014193
 H        -0.209755         2.986851         2.554238
 H        -1.832789         3.545839         2.348422
 H        -3.038430         0.147885         2.999478
 H        -0.040660        -0.080838         2.859168
 H        -0.825865        -1.361558         1.847489
