19
Iteration:  1163
 O         0.704417         0.121955         0.104207
 C        -0.565810         0.451751         0.699809
 C        -1.833373         0.087999        -0.043973
 C        -2.512528         1.048540         0.998207
 C        -1.250334         1.828664         0.948325
 C        -1.071216         2.456793         2.304429
 O        -1.932211         1.690672         3.173432
 C        -2.210927         0.523967         2.494770
 C        -0.758280        -0.168493         2.030432
 H         1.451181         0.553151         0.592341
 H        -2.099340         0.539857        -0.963214
 H        -2.284823        -0.954992        -0.025378
 H        -3.449434         1.478914         0.763990
 H        -1.138065         2.478508         0.145051
 H        -0.069749         2.416095         2.724647
 H        -1.497389         3.590859         2.320010
 H        -2.901414        -0.129974         3.054037
 H         0.041785         0.089301         2.769505
 H        -0.875267        -1.312743         2.001205
