19
Iteration:  2301
 O         0.633565         0.246122         0.184478
 C        -0.608939         0.442640         0.703509
 C        -1.934712        -0.111982        -0.028995
 C        -2.506607         0.937546         1.028030
 C        -1.260664         1.881776         0.851444
 C        -1.080360         2.567538         2.260814
 O        -1.910942         1.763556         3.110467
 C        -2.052839         0.502657         2.483995
 C        -0.713522        -0.219114         2.105490
 H         1.365038         0.420580         0.888770
 H        -2.085957         0.469410        -0.979783
 H        -2.341668        -1.129951         0.050795
 H        -3.477432         1.378521         0.980118
 H        -1.211229         2.358305        -0.116569
 H        -0.072233         2.484945         2.683591
 H        -1.433080         3.617907         2.102135
 H        -2.705082        -0.067860         3.123862
 H         0.159466         0.066371         2.827003
 H        -0.767448        -1.258363         1.877774
