19
Iteration:  3585charge 0 multiplicity 1
 O         0.720122         0.255110         0.224540
 C        -0.573359         0.419009         0.694502
 C        -1.935481        -0.060814        -0.009202
 C        -2.466788         1.016220         1.032975
 C        -1.302799         1.902950         0.845704
 C        -1.178005         2.616171         2.175637
 O        -1.828500         1.723413         3.110167
 C        -2.116109         0.485998         2.440339
 C        -0.720586        -0.240164         2.173582
 H         0.860639        -0.597514         0.430010
 H        -1.983267         0.199293        -1.116455
 H        -2.104337        -1.148655         0.334987
 H        -3.528399         1.268350         1.155700
 H        -1.392223         2.473076        -0.017511
 H        -0.127225         2.969008         2.449100
 H        -1.760922         3.461235         2.179165
 H        -2.934988        -0.079491         2.977455
 H         0.116185         0.025039         2.837967
 H        -0.783230        -1.384057         2.180873
