19
Iteration:  4834charge 0 multiplicity 1
 O         0.725296         0.206147         0.330733
 C        -0.615821         0.395689         0.732601
 C        -1.887376         0.052144        -0.098188
 C        -2.508384         1.027008         1.038579
 C        -1.285676         1.886974         0.933680
 C        -1.197158         2.623918         2.176272
 O        -1.710057         1.691702         3.127326
 C        -2.127087         0.448834         2.437060
 C        -0.822871        -0.275390         2.143205
 H         0.581518        -0.032958        -0.639756
 H        -1.900084         0.514953        -1.118200
 H        -2.174632        -1.009705        -0.321217
 H        -3.523844         1.338396         0.822707
 H        -1.112517         2.532685         0.024373
 H        -0.182768         2.870301         2.547337
 H        -1.788578         3.504595         2.084207
 H        -2.866772        -0.038942         3.149564
 H        -0.041979        -0.073827         2.864526
 H        -0.788062        -1.374663         1.924485
