19
Iteration:  1141
 O         0.692629         0.215190         0.147759
 C        -0.573040         0.363928         0.670391
 C        -1.927490         0.071308        -0.116349
 C        -2.530647         0.992528         0.985293
 C        -1.196901         1.912443         0.885216
 C        -1.099391         2.593593         2.327950
 O        -1.830336         1.709352         3.225525
 C        -2.141253         0.440873         2.349231
 C        -0.814703        -0.282161         2.143934
 H         1.311033         0.230758         0.889586
 H        -1.963242         0.536133        -1.091801
 H        -2.358574        -1.008847        -0.164985
 H        -3.554336         1.269053         0.987578
 H        -1.105897         2.609852         0.121072
 H        -0.122839         2.631938         2.810802
 H        -1.515461         3.734978         2.301343
 H        -2.899623        -0.003070         2.986478
 H        -0.096260         0.026270         2.957429
 H        -0.982612        -1.425560         2.286852
