19
Iteration:   983
 O         0.691874         0.305615         0.196120
 C        -0.617620         0.405841         0.770595
 C        -1.900119         0.034204        -0.042116
 C        -2.528335         0.981920         0.990400
 C        -1.131947         1.837367         0.879606
 C        -1.057613         2.522141         2.285829
 O        -1.874768         1.683643         3.209144
 C        -2.205642         0.568680         2.446172
 C        -0.809323        -0.262162         2.050676
 H         0.961202        -0.542892         0.002650
 H        -2.017130         0.500348        -1.086366
 H        -2.211812        -0.982723        -0.097853
 H        -3.480061         1.410604         0.672527
 H        -1.025949         2.502705        -0.009235
 H        -0.036731         2.611790         2.479996
 H        -1.383156         3.645173         2.170514
 H        -2.923757         0.017668         3.051947
 H         0.002445        -0.168232         2.798349
 H        -0.846758        -1.366316         1.979611
