19
Iteration:  3941
 O         0.742756         0.252534         0.165862
 C        -0.606723         0.311731         0.652454
 C        -1.934319         0.004369        -0.055552
 C        -2.521740         1.013944         0.999074
 C        -1.167876         1.837298         0.929712
 C        -0.982669         2.509290         2.340652
 O        -2.006631         1.717005         3.130295
 C        -2.124379         0.487022         2.415725
 C        -0.767967        -0.166600         2.168008
 H         0.717414         1.015704        -0.520919
 H        -2.077195         0.255881        -1.137770
 H        -2.314081        -1.036896         0.020107
 H        -3.433027         1.589487         1.038076
 H        -1.149603         2.494942         0.121509
 H         0.084477         2.318274         2.676186
 H        -1.373784         3.499948         2.482837
 H        -2.936762        -0.059931         2.931024
 H         0.022053         0.185992         2.921118
 H        -0.942703        -1.238650         2.340695
