19
Iteration:  2236charge 0 multiplicity 1
 O         0.645087         0.171937         0.060678
 C        -0.568236         0.426472         0.767838
 C        -1.885084        -0.005248         0.010331
 C        -2.496859         0.948959         1.050319
 C        -1.226284         1.808890         0.916806
 C        -1.124058         2.604087         2.269784
 O        -1.956971         1.792230         3.114407
 C        -2.114337         0.504021         2.498046
 C        -0.707427        -0.229979         2.074806
 H         1.378978         0.365480         0.575337
 H        -1.937835         0.493846        -1.040269
 H        -2.222307        -1.133300         0.060234
 H        -3.450646         1.307985         0.759558
 H        -1.232015         2.370380         0.017600
 H        -0.013795         2.584479         2.704690
 H        -1.525943         3.628233         2.270278
 H        -2.768980        -0.138047         3.079437
 H         0.142009         0.202566         2.725166
 H        -0.812698        -1.288324         1.999949
