19
Iteration:  2299charge 0 multiplicity 1
 O         0.639663         0.256651         0.173290
 C        -0.613951         0.446134         0.712929
 C        -1.936924        -0.130207        -0.021303
 C        -2.504005         0.960484         1.034264
 C        -1.252056         1.863254         0.863639
 C        -1.067662         2.550396         2.257200
 O        -1.914828         1.765888         3.115367
 C        -2.049731         0.497214         2.458978
 C        -0.719399        -0.208032         2.109194
 H         1.257187         0.417709         0.841638
 H        -2.086900         0.401334        -0.927472
 H        -2.272845        -1.113140         0.037723
 H        -3.561329         1.405274         0.948856
 H        -1.170859         2.455048        -0.142393
 H        -0.119150         2.514905         2.705767
 H        -1.456201         3.629629         2.082096
 H        -2.711160        -0.080563         3.116380
 H         0.139634         0.065543         2.784926
 H        -0.788916        -1.300049         1.963525
