19
Iteration:  3946
 O         0.718618         0.252910         0.186192
 C        -0.591067         0.346034         0.671853
 C        -1.958979        -0.009653        -0.073308
 C        -2.463462         1.019604         1.053619
 C        -1.137964         1.868491         0.937457
 C        -1.010564         2.518724         2.318895
 O        -2.011716         1.710615         3.092799
 C        -2.080566         0.456804         2.384022
 C        -0.823435        -0.180048         2.202923
 H         0.648809         0.796572        -0.649504
 H        -2.050579         0.343546        -1.089824
 H        -2.343720        -1.048403        -0.123362
 H        -3.482299         1.465728         1.223761
 H        -1.198518         2.532816        -0.021685
 H        -0.007780         2.318425         2.637796
 H        -1.288019         3.601351         2.582037
 H        -2.858599        -0.027223         2.974638
 H        -0.054729         0.161019         2.850245
 H        -0.776227        -1.296538         2.220409
