19
Iteration:  2224
 O         0.739069         0.126650         0.110298
 C        -0.560119         0.395792         0.626748
 C        -1.977824         0.002265         0.014337
 C        -2.557395         0.955530         1.052649
 C        -1.233116         1.873606         0.896531
 C        -1.141228         2.544008         2.223018
 O        -1.949150         1.776911         3.184955
 C        -2.072823         0.489369         2.456072
 C        -0.702915        -0.181730         2.130175
 H         1.351567         0.551330         0.791223
 H        -2.037060         0.501233        -1.015021
 H        -2.192176        -1.099818        -0.240131
 H        -3.486489         1.539252         1.181035
 H        -1.189460         2.566230         0.029897
 H        -0.048251         2.808998         2.588422
 H        -1.657899         3.561343         2.109576
 H        -2.823864        -0.046030         3.033992
 H         0.137478        -0.043198         2.917753
 H        -0.645731        -1.241858         2.092778
