19
Iteration:  3722
 O         0.703982         0.305784         0.183024
 C        -0.557193         0.393922         0.783141
 C        -1.903865        -0.024254        -0.002657
 C        -2.472819         0.948508         1.042550
 C        -1.133283         1.835280         0.876337
 C        -1.148456         2.631424         2.192698
 O        -1.896180         1.734284         3.134951
 C        -2.064072         0.505219         2.443595
 C        -0.836815        -0.251392         2.143664
 H         0.684914        -0.584557        -0.332903
 H        -2.074984         0.507537        -0.985540
 H        -2.360456        -1.004951         0.057617
 H        -3.578838         1.233558         0.965851
 H        -1.224103         2.483756        -0.072359
 H        -0.241349         2.878729         2.667088
 H        -1.792760         3.587809         2.088722
 H        -2.807164        -0.115007         2.968576
 H         0.085726        -0.233586         2.804228
 H        -1.102892        -1.344423         2.016690
