19
Iteration:  4681charge 0 multiplicity 1
 O         0.757104         0.262818         0.275301
 C        -0.545850         0.450436         0.760727
 C        -1.851115         0.083995        -0.050984
 C        -2.640693         1.036590         0.959210
 C        -1.244349         1.837326         0.880471
 C        -1.104268         2.564441         2.199389
 O        -1.764014         1.613840         3.211372
 C        -2.136459         0.498551         2.497279
 C        -0.887995        -0.320625         2.066771
 H         0.770944         0.216489        -0.771917
 H        -1.805009         0.558274        -1.086739
 H        -2.266932        -1.055573        -0.183876
 H        -3.597157         1.547749         0.836235
 H        -1.273429         2.477238        -0.033753
 H        -0.089574         2.746470         2.617085
 H        -1.678023         3.573886         2.344724
 H        -2.987894         0.125740         3.162931
 H        -0.046376        -0.132644         2.750567
 H        -0.873601        -1.389572         1.848492
