19
Iteration:  3215charge 0 multiplicity 1
 O         0.624403         0.158180         0.067666
 C        -0.535755         0.479801         0.714937
 C        -1.862896        -0.003714         0.042305
 C        -2.491398         0.943883         1.081000
 C        -1.196525         1.871782         0.919576
 C        -1.114877         2.565367         2.220039
 O        -2.004914         1.806995         3.090414
 C        -2.121065         0.417942         2.457417
 C        -0.734802        -0.236773         2.186452
 H         1.464881         0.672777         0.460585
 H        -1.890028         0.365403        -1.003809
 H        -2.165389        -1.033508         0.070443
 H        -3.505339         1.275682         0.786565
 H        -1.059741         2.475688        -0.152215
 H        -0.037111         2.567309         2.605063
 H        -1.447005         3.620924         2.262420
 H        -2.816887        -0.176678         3.080252
 H         0.016957         0.134622         2.822589
 H        -0.688356        -1.299539         2.087309
