19
Iteration:   295charge 0 multiplicity 1
 O         0.617111         0.155883         0.073749
 C        -0.545683         0.442127         0.768773
 C        -1.845616         0.051880         0.058726
 C        -2.471031         0.987997         0.945922
 C        -1.215783         1.943530         0.914048
 C        -1.038332         2.534486         2.364078
 O        -1.913031         1.666285         3.063181
 C        -2.196704         0.515758         2.318728
 C        -0.844180        -0.190494         2.215249
 H         1.266696        -0.126486         0.715475
 H        -1.739979         0.406044        -0.998530
 H        -2.156859        -1.005239        -0.074117
 H        -3.469521         1.403533         0.838893
 H        -1.071091         2.575842         0.044578
 H         0.018893         2.481639         2.700935
 H        -1.318784         3.493168         2.527972
 H        -2.963835        -0.059720         2.925202
 H        -0.089570         0.041354         2.984319
 H        -0.754960        -1.280671         2.121578
