19
Iteration:  3262
 O         0.724572         0.344446         0.111714
 C        -0.590332         0.428351         0.737129
 C        -1.879591        -0.073055         0.036486
 C        -2.569324         0.969522         1.025571
 C        -1.240731         1.805942         0.890157
 C        -1.003025         2.494025         2.141612
 O        -1.854480         1.718641         3.133087
 C        -2.201522         0.502090         2.430372
 C        -0.835567        -0.179506         2.166471
 H         1.215875         0.263559         0.919270
 H        -2.069698         0.008530        -1.027176
 H        -1.964922        -1.177287         0.390176
 H        -3.580474         1.393192         0.879575
 H        -1.334592         2.440980        -0.136698
 H         0.006467         2.658154         2.665523
 H        -1.448969         3.435749         2.166791
 H        -2.992043         0.023051         3.072721
 H        -0.198576         0.340834         2.907193
 H        -0.607740        -1.254897         2.116130
