19
Iteration:  4393charge 0 multiplicity 1
 O         0.714171         0.226775         0.235760
 C        -0.544489         0.406482         0.751018
 C        -1.886522         0.050798        -0.015516
 C        -2.531962         1.000820         0.996308
 C        -1.247678         1.843227         0.964383
 C        -1.090312         2.560067         2.247863
 O        -1.905724         1.631888         3.167853
 C        -2.112305         0.522004         2.434104
 C        -0.774042        -0.228031         2.047317
 H         0.579082         0.536152        -0.733734
 H        -2.079670         0.528313        -0.992217
 H        -2.229541        -0.992019         0.053357
 H        -3.477774         1.535149         0.778732
 H        -1.138914         2.402654         0.087261
 H        -0.163780         2.587003         2.717963
 H        -1.409541         3.657238         2.134148
 H        -2.886375        -0.062925         2.903696
 H         0.030618        -0.019086         2.716609
 H        -0.802528        -1.274219         1.794471
