19
Iteration:   597charge 0 multiplicity 1
 O         0.627163         0.069152         0.039775
 C        -0.534729         0.484920         0.719279
 C        -1.783462         0.012662        -0.103251
 C        -2.457082         0.959693         0.967786
 C        -1.203364         1.899531         0.872267
 C        -1.065978         2.551766         2.432267
 O        -1.928174         1.699358         3.231407
 C        -2.223575         0.577387         2.451635
 C        -0.839185        -0.188599         2.116483
 H         1.366301         0.270429         0.499180
 H        -1.966895         0.451905        -1.048188
 H        -1.867991        -1.126535        -0.183658
 H        -3.421510         1.548068         0.753703
 H        -1.361561         2.644965         0.051006
 H         0.079501         2.600066         2.766553
 H        -1.465429         3.537859         2.415484
 H        -3.023088         0.001632         3.016490
 H        -0.086025        -0.010127         2.880268
 H        -1.046775        -1.280970         2.042301
