19
Iteration:  2858charge 0 multiplicity 1
 O         0.550849         0.236762         0.048660
 C        -0.568206         0.455490         0.797937
 C        -1.792451        -0.096768         0.058984
 C        -2.480705         0.987938         0.941427
 C        -1.214492         1.888770         0.917321
 C        -1.137091         2.572680         2.284974
 O        -1.828150         1.731311         3.141740
 C        -2.135847         0.476761         2.373962
 C        -0.828582        -0.217768         2.210404
 H         1.450007         0.747239         0.280236
 H        -1.767038         0.062311        -1.043059
 H        -1.958963        -1.158075         0.248911
 H        -3.503016         1.296795         0.781043
 H        -1.162578         2.485679         0.042839
 H        -0.046628         2.650175         2.593131
 H        -1.641500         3.620700         2.114851
 H        -3.032921        -0.116218         2.825720
 H         0.054989        -0.039152         2.909984
 H        -0.966382        -1.336163         2.190015
