19
Iteration:  2792charge 0 multiplicity 1
 O         0.659476         0.312709         0.134665
 C        -0.589082         0.407554         0.782511
 C        -1.787645        -0.035015         0.040543
 C        -2.607742         0.909720         0.983268
 C        -1.328437         1.856975         0.885140
 C        -1.098986         2.534368         2.211998
 O        -1.852177         1.784765         3.156432
 C        -2.113911         0.534015         2.421609
 C        -0.724133        -0.241717         2.110893
 H         1.032629        -0.441051         0.661341
 H        -1.906889         0.235886        -1.056714
 H        -2.075287        -1.076131         0.014059
 H        -3.583967         1.292893         0.974542
 H        -1.111553         2.464913        -0.019497
 H        -0.004011         2.509046         2.590077
 H        -1.468481         3.623934         2.227331
 H        -2.921037         0.005869         3.034903
 H         0.168403         0.081239         2.720153
 H        -0.943727        -1.331371         1.975154
