19
Iteration:  4176
 O         0.752863         0.238228         0.255117
 C        -0.553615         0.413008         0.697800
 C        -1.968187         0.014944         0.000455
 C        -2.519850         0.986243         0.924683
 C        -1.198974         1.775104         0.906445
 C        -1.133635         2.494970         2.288525
 O        -1.851945         1.718421         3.211302
 C        -2.145752         0.559238         2.460357
 C        -0.801955        -0.212785         2.001995
 H         1.032371         0.878417        -0.290844
 H        -1.944421         0.318839        -1.006364
 H        -2.389138        -0.997730         0.005284
 H        -3.539619         1.531618         0.716969
 H        -1.084002         2.578435         0.063043
 H        -0.081536         2.624189         2.586554
 H        -1.679057         3.459496         2.348021
 H        -2.813384        -0.102919         3.055055
 H         0.027014        -0.090651         2.711763
 H        -0.969880        -1.371547         2.004275
