19
Iteration:  2008
 O         0.707508         0.344233         0.167786
 C        -0.620907         0.462204         0.721035
 C        -1.869870        -0.098839        -0.041555
 C        -2.611672         0.909317         1.059239
 C        -1.311166         1.812340         0.891588
 C        -0.981878         2.487086         2.229615
 O        -1.863686         1.776759         3.118076
 C        -2.126708         0.542587         2.457451
 C        -0.745061        -0.170396         2.110550
 H         1.051595        -0.574105         0.485326
 H        -2.015457         0.324004        -1.079302
 H        -2.184232        -1.064134         0.062518
 H        -3.660912         1.135244         0.836293
 H        -1.367259         2.445422        -0.007248
 H         0.079058         2.324006         2.498236
 H        -1.314146         3.611048         2.232446
 H        -2.802866         0.090932         3.197654
 H        -0.113289         0.243271         2.982749
 H        -0.859708        -1.286385         2.091578
