19
Iteration:  4954
 O         0.706967         0.166793         0.307509
 C        -0.610620         0.442200         0.735979
 C        -1.863829         0.033496         0.020395
 C        -2.533066         0.970088         1.016206
 C        -1.322370         1.830982         0.843360
 C        -1.186621         2.597206         2.117818
 O        -1.744195         1.711932         3.119706
 C        -2.115072         0.463067         2.472559
 C        -0.774983        -0.231270         2.087242
 H         1.216043         0.905428         0.196686
 H        -2.121908         0.363820        -0.971794
 H        -1.983569        -0.985503         0.162699
 H        -3.497852         1.424627         0.886479
 H        -1.351714         2.363725        -0.128736
 H        -0.129949         2.799394         2.534035
 H        -1.732440         3.617267         2.127706
 H        -2.922021         0.026252         3.064195
 H        -0.063371         0.014596         2.832080
 H        -0.828681        -1.358772         1.954213
