19
Iteration:  1610
 O         0.681069         0.409131         0.161887
 C        -0.563410         0.393798         0.724597
 C        -1.987963         0.001331         0.028268
 C        -2.486277         1.027883         1.035947
 C        -1.091851         1.830142         0.900330
 C        -1.075907         2.431284         2.259669
 O        -1.907910         1.681956         3.117146
 C        -2.153307         0.510041         2.382142
 C        -0.816251        -0.213983         2.136413
 H         1.281169        -0.314982         0.326484
 H        -2.197022         0.371242        -0.982092
 H        -2.061246        -1.155895         0.157703
 H        -3.560063         1.451653         0.916645
 H        -1.185608         2.477395         0.010885
 H         0.057057         2.374371         2.532322
 H        -1.379552         3.543475         2.187295
 H        -3.026948        -0.048156         2.884631
 H        -0.068534        -0.077833         2.891102
 H        -1.024650        -1.328604         2.013650
