19
Iteration:  1202charge 0 multiplicity 1
 O         0.593978         0.280878        -0.020373
 C        -0.489823         0.329754         0.749208
 C        -1.840999         0.017677         0.028132
 C        -2.516067         1.052490         0.911636
 C        -1.190943         1.809278         0.981254
 C        -1.076543         2.468559         2.364007
 O        -1.935960         1.720040         3.178481
 C        -2.215406         0.562160         2.403818
 C        -0.792700        -0.231113         2.165840
 H         1.474729         0.440818         0.558991
 H        -1.724004         0.269120        -1.087916
 H        -2.177716        -1.003838         0.152314
 H        -3.477906         1.534218         0.520033
 H        -0.882627         2.477476         0.070784
 H        -0.003052         2.336246         2.746009
 H        -1.324554         3.449247         2.302539
 H        -2.958640         0.096733         3.048091
 H         0.029132         0.075351         2.806054
 H        -0.918462        -1.288727         2.114341
