19
Iteration:  1331
 O         0.700409         0.175961        -0.022914
 C        -0.546281         0.406502         0.765177
 C        -1.795617         0.013519        -0.013535
 C        -2.570752         1.005401         1.043090
 C        -1.210121         1.875823         0.965336
 C        -1.048713         2.509933         2.315208
 O        -1.963490         1.729897         3.217619
 C        -2.278512         0.538477         2.366072
 C        -0.758930        -0.195132         2.093996
 H         1.313106         0.237995         0.627457
 H        -1.818052         0.348055        -1.145018
 H        -2.064890        -0.994231        -0.024530
 H        -3.582545         1.467245         0.842121
 H        -1.147094         2.424738        -0.009863
 H         0.007068         2.317616         2.573532
 H        -1.193844         3.616169         2.528530
 H        -2.895188        -0.120875         2.973082
 H         0.040162         0.106012         2.844562
 H        -0.844185        -1.243551         2.257304
