19
Iteration:  1909charge 0 multiplicity 1
 O         0.696976         0.349277         0.245683
 C        -0.616567         0.362114         0.630034
 C        -2.008345        -0.043815        -0.051318
 C        -2.506435         0.908353         1.032415
 C        -1.225578         1.783713         0.859638
 C        -1.035961         2.566883         2.212790
 O        -1.890764         1.744975         3.163946
 C        -2.071214         0.516407         2.477316
 C        -0.773274        -0.212476         2.086778
 H         1.279968        -0.510693         0.436691
 H        -1.950990         0.501455        -1.051922
 H        -2.224127        -1.076627        -0.069087
 H        -3.378103         1.593798         1.054624
 H        -1.290654         2.502743        -0.010443
 H        -0.148492         2.756581         2.793706
 H        -1.575708         3.640109         2.362168
 H        -2.897609         0.055422         3.034232
 H         0.086437         0.273737         2.736008
 H        -0.847100        -1.310599         2.197773
