19
Iteration:  2743charge 0 multiplicity 1
 O         0.680793         0.340772         0.145103
 C        -0.542277         0.333436         0.772421
 C        -1.916981        -0.061540         0.052442
 C        -2.494135         1.011262         0.959498
 C        -1.221352         1.790255         0.944143
 C        -1.182301         2.609776         2.184957
 O        -1.880907         1.783006         3.175663
 C        -2.059582         0.474494         2.472604
 C        -0.749942        -0.228711         2.107866
 H         0.873496        -0.513012        -0.335100
 H        -1.902316         0.220218        -0.979290
 H        -2.149469        -1.178427         0.054529
 H        -3.560935         1.451679         0.715505
 H        -1.175872         2.429562         0.068695
 H        -0.188962         2.834227         2.538372
 H        -1.900771         3.626572         2.037528
 H        -2.797461        -0.121771         3.022461
 H         0.079204         0.018361         2.830206
 H        -0.966578        -1.379677         2.006712
