19
Iteration:  3020charge 0 multiplicity 1
 O         0.689414         0.188062         0.176108
 C        -0.557799         0.450350         0.678505
 C        -1.815309        -0.061036         0.012710
 C        -2.519105         0.945145         0.984805
 C        -1.299103         1.915834         0.856613
 C        -1.168583         2.621849         2.291611
 O        -1.846868         1.707516         3.164024
 C        -2.141721         0.504824         2.503018
 C        -0.742457        -0.159552         2.117367
 H         0.755880        -0.649795        -0.373556
 H        -1.890950         0.182036        -1.119775
 H        -2.128013        -1.156204         0.161746
 H        -3.414980         1.478567         0.716427
 H        -1.266568         2.536392        -0.089324
 H        -0.086889         2.837685         2.566980
 H        -1.835010         3.521600         2.362017
 H        -2.972921         0.008837         3.015831
 H        -0.011342         0.138498         2.877247
 H        -0.592441        -1.324683         2.122128
