19
Iteration:  3089charge 0 multiplicity 1
 O         0.733326         0.376531         0.155512
 C        -0.553048         0.452588         0.771159
 C        -1.865582        -0.085555         0.086522
 C        -2.569419         0.956924         0.962462
 C        -1.327450         1.814053         0.818880
 C        -1.001787         2.518172         2.244631
 O        -1.886704         1.737116         3.141493
 C        -2.222668         0.548434         2.398305
 C        -0.722914        -0.201482         2.159785
 H         0.773561        -0.663647        -0.097811
 H        -2.025283         0.216918        -0.940261
 H        -2.084441        -1.170320         0.244783
 H        -3.627417         1.306614         0.842184
 H        -1.422229         2.334275        -0.029703
 H        -0.027985         2.349141         2.602139
 H        -1.263798         3.656807         2.150902
 H        -2.921179        -0.061169         3.060815
 H        -0.177790        -0.001182         3.153711
 H        -0.507485        -1.302619         1.971908
