19
Iteration:  3279
 O         0.675632         0.305176         0.218718
 C        -0.567125         0.398695         0.778709
 C        -1.950141        -0.100433         0.089123
 C        -2.549493         0.950596         0.935624
 C        -1.301008         1.847424         0.813836
 C        -1.144934         2.564183         2.215906
 O        -1.810702         1.747967         3.126400
 C        -2.079571         0.486027         2.416972
 C        -0.728799        -0.185699         2.082525
 H         1.369008         0.096746         0.895589
 H        -1.955770         0.389734        -0.914249
 H        -2.345474        -1.074872         0.024144
 H        -3.550032         1.429120         0.926682
 H        -1.087277         2.527710        -0.031996
 H        -0.089940         2.460483         2.389254
 H        -1.485042         3.673157         2.297290
 H        -2.806720        -0.094094         3.006432
 H         0.084424        -0.031757         2.803288
 H        -1.014236        -1.246476         2.097961
