19
Iteration:  4694
 O         0.739194         0.212600         0.227591
 C        -0.603696         0.394589         0.769428
 C        -1.924063         0.093766        -0.017860
 C        -2.475479         1.049443         1.039721
 C        -1.198852         1.864913         0.963903
 C        -1.207404         2.581829         2.265350
 O        -1.748342         1.689665         3.146631
 C        -2.193292         0.452202         2.369405
 C        -0.790144        -0.321420         2.074936
 H         0.668816         0.531181        -0.623873
 H        -1.870744         0.614503        -1.045855
 H        -2.254951        -1.019129        -0.146433
 H        -3.471728         1.476871         0.884339
 H        -0.956911         2.439220         0.111475
 H        -0.198061         2.942714         2.541656
 H        -1.951031         3.516094         2.013110
 H        -2.877132        -0.203970         2.915362
 H        -0.152104        -0.199324         2.927299
 H        -0.959780        -1.414849         1.880168
