19
Iteration:    79
 O         0.739620         0.357158         0.082606
 C        -0.550314         0.381568         0.755408
 C        -1.954709        -0.011785        -0.084818
 C        -2.454454         1.044162         0.852140
 C        -1.090922         1.794839         0.948117
 C        -1.074003         2.484202         2.342244
 O        -1.859286         1.670693         3.213058
 C        -2.242941         0.582769         2.460074
 C        -0.903373        -0.252002         2.227975
 H         0.967475        -0.511909        -0.069822
 H        -1.756133         0.405862        -1.135456
 H        -2.488806        -0.916798        -0.072247
 H        -3.326746         1.588859         0.576256
 H        -0.936890         2.457136         0.116390
 H        -0.069688         2.726893         2.709082
 H        -1.602553         3.400277         2.196313
 H        -3.021097        -0.005892         3.016308
 H        -0.192532        -0.161852         3.022632
 H        -1.298698        -1.201564         1.912740
