19
Iteration:  4566charge 0 multiplicity 1
 O         0.724143         0.008513         0.110272
 C        -0.539078         0.413826         0.668804
 C        -1.885579         0.190445        -0.073095
 C        -2.556733         1.080498         1.001292
 C        -1.236040         1.876985         0.986412
 C        -1.216959         2.685025         2.309446
 O        -1.844436         1.605684         3.228373
 C        -2.145049         0.407390         2.426219
 C        -0.735247        -0.226357         2.073608
 H         1.405345         0.714902         0.462250
 H        -2.042650         0.609046        -1.078852
 H        -2.307333        -0.765928        -0.119685
 H        -3.604516         1.504169         0.888309
 H        -1.169817         2.549015         0.118630
 H        -0.230681         2.881009         2.737328
 H        -1.759131         3.508663         2.237985
 H        -2.897246        -0.211313         2.914551
 H         0.063018         0.079612         2.721531
 H        -0.648733        -1.336883         2.000246
