19
Iteration:  2346
 O         0.616706         0.223383         0.071144
 C        -0.560671         0.434439         0.759771
 C        -1.861291        -0.071584        -0.004758
 C        -2.506899         0.930797         0.957141
 C        -1.239722         1.847321         0.865854
 C        -1.209990         2.641543         2.209558
 O        -1.734845         1.702098         3.209922
 C        -2.157021         0.519270         2.463869
 C        -0.806628        -0.199454         2.160678
 H         1.386376         0.204381         0.784683
 H        -1.713186         0.391556        -1.043828
 H        -1.991161        -1.148243         0.277842
 H        -3.455427         1.265327         0.725867
 H        -1.204661         2.437934         0.010894
 H        -0.161936         2.881212         2.471235
 H        -1.930763         3.515157         2.352824
 H        -2.947131         0.028959         3.026205
 H         0.054825         0.160205         2.891557
 H        -0.934738        -1.266886         2.067479
