19
Iteration:  1138charge 0 multiplicity 1
 O         0.670526         0.231038         0.148755
 C        -0.580743         0.356886         0.674151
 C        -1.893417         0.068580        -0.111946
 C        -2.497823         1.002171         0.986228
 C        -1.203651         1.912614         0.900288
 C        -1.101550         2.599765         2.323324
 O        -1.813569         1.701017         3.197299
 C        -2.167138         0.445039         2.378217
 C        -0.809733        -0.307662         2.142210
 H         1.350704         0.176260         0.965005
 H        -2.095919         0.557110        -1.031958
 H        -2.350245        -0.916156        -0.098687
 H        -3.612612         1.263886         0.930727
 H        -1.092795         2.633678         0.013047
 H        -0.123094         2.628607         2.775514
 H        -1.566474         3.706056         2.291241
 H        -2.937443        -0.047616         2.949652
 H        -0.138980         0.057339         2.910124
 H        -0.986252        -1.396742         2.254167
