19
Iteration:    62charge 0 multiplicity 1
 O         0.660254         0.364768         0.161267
 C        -0.589384         0.406849         0.767292
 C        -1.791651        -0.018837         0.018335
 C        -2.534110         1.084428         0.960208
 C        -1.184165         1.866434         0.932680
 C        -1.007460         2.519407         2.293134
 O        -1.772360         1.665109         3.202287
 C        -2.245249         0.531910         2.319423
 C        -1.006148        -0.336243         2.058984
 H         1.091747        -0.386814         0.396276
 H        -1.815760         0.164051        -1.075959
 H        -1.963224        -1.138854         0.212332
 H        -3.543937         1.540233         0.677712
 H        -0.859933         2.490435         0.050968
 H         0.098711         2.556267         2.554665
 H        -1.350730         3.620877         2.384227
 H        -3.128952         0.074152         2.776545
 H        -0.318990        -0.062502         2.932519
 H        -1.012488        -1.468815         2.085585
