19
Iteration:  4353
 O         0.760597         0.361756         0.231029
 C        -0.610418         0.471720         0.752384
 C        -1.885109        -0.006922        -0.015317
 C        -2.535136         0.959827         0.995478
 C        -1.279624         1.804178         0.902324
 C        -0.926142         2.388551         2.231341
 O        -1.891237         1.695393         3.193916
 C        -2.249155         0.502842         2.448663
 C        -0.853698        -0.143057         2.049813
 H         0.743157         0.623178        -0.662533
 H        -1.880987         0.396409        -1.026996
 H        -2.129293        -1.126672         0.022926
 H        -3.456157         1.362949         0.693728
 H        -1.165889         2.362052        -0.132690
 H         0.214879         2.170272         2.498526
 H        -1.130919         3.422826         2.393909
 H        -2.737094        -0.193601         3.092223
 H        -0.115982         0.100200         2.914869
 H        -1.076122        -1.246222         2.052107
