19
Iteration:  2781charge 0 multiplicity 1
 O         0.657525         0.311807         0.107881
 C        -0.558129         0.439428         0.754362
 C        -1.854889        -0.074287         0.037409
 C        -2.512118         0.962415         0.971126
 C        -1.294719         1.832622         0.904545
 C        -1.143431         2.566673         2.214951
 O        -1.818049         1.733009         3.169388
 C        -2.119471         0.510104         2.413020
 C        -0.808294        -0.198458         2.163010
 H         1.087580        -0.466184         0.280388
 H        -1.725219         0.274840        -1.032992
 H        -2.095653        -1.102028         0.224785
 H        -3.494165         1.287832         0.799479
 H        -1.161454         2.449555        -0.019388
 H        -0.021189         2.712207         2.371613
 H        -1.619364         3.590210         2.194462
 H        -2.814634        -0.097957         3.041252
 H        -0.211138        -0.004728         3.079087
 H        -0.779515        -1.307719         2.134504
