19
Iteration:  4248charge 0 multiplicity 1
 O         0.798952         0.240081         0.204822
 C        -0.593539         0.434316         0.679834
 C        -1.950442         0.030438        -0.026336
 C        -2.430355         0.999402         1.005294
 C        -1.192757         1.883849         0.929866
 C        -1.114663         2.524584         2.307698
 O        -1.915171         1.659831         3.123566
 C        -2.166632         0.461560         2.463373
 C        -0.825971        -0.187131         2.115433
 H         0.752464         0.173385        -0.713536
 H        -2.194183         0.415771        -1.096718
 H        -2.384482        -0.959025         0.159299
 H        -3.382408         1.525059         0.796511
 H        -1.257247         2.473708         0.077203
 H        -0.126594         2.452473         2.807149
 H        -1.407414         3.688286         2.189604
 H        -2.852681        -0.188834         3.082209
 H        -0.049748         0.010070         2.842495
 H        -0.834649        -1.247903         1.918093
