19
Iteration:  2896
 O         0.662945         0.134193         0.113380
 C        -0.576107         0.367986         0.680824
 C        -1.915463         0.017321        -0.107471
 C        -2.474550         0.958494         1.039908
 C        -1.224748         1.834266         0.940951
 C        -1.207057         2.613092         2.242757
 O        -1.920861         1.785444         3.209213
 C        -2.063356         0.496164         2.451790
 C        -0.718538        -0.198347         2.119915
 H         1.317117         0.236955         0.814185
 H        -1.929598         0.536060        -1.072025
 H        -2.087230        -1.084362        -0.090082
 H        -3.525939         1.355336         1.049125
 H        -1.142637         2.497632         0.004289
 H        -0.160508         2.988209         2.520682
 H        -1.795342         3.468067         2.184649
 H        -2.715803        -0.108185         3.073463
 H         0.092791         0.132406         2.783762
 H        -0.667128        -1.300579         2.155174
