19
Iteration:  4639
 O         0.745820         0.421628         0.286204
 C        -0.643310         0.436123         0.699796
 C        -1.942443         0.073692        -0.000424
 C        -2.581821         0.983175         0.987417
 C        -1.253522         1.825910         0.901453
 C        -0.869343         2.376608         2.272481
 O        -1.937631         1.681872         3.109735
 C        -2.180932         0.484295         2.439810
 C        -0.802949        -0.240816         2.079010
 H         0.815819         0.282700        -0.639811
 H        -2.000736         0.288214        -1.103004
 H        -2.110592        -1.046718         0.197592
 H        -3.515280         1.542962         0.803181
 H        -1.102077         2.357351        -0.025320
 H         0.175472         2.153285         2.570164
 H        -0.975923         3.593881         2.440490
 H        -2.831400        -0.241351         3.015565
 H        -0.034309         0.028814         2.800313
 H        -0.958473        -1.368866         2.070285
