19
Iteration:   844
 O         0.704380         0.178980         0.070355
 C        -0.613357         0.425720         0.700694
 C        -1.852708         0.060968        -0.086159
 C        -2.458918         1.033115         0.974035
 C        -1.189621         1.851207         0.950285
 C        -1.093535         2.490009         2.242976
 O        -1.904285         1.680430         3.256453
 C        -2.158799         0.517853         2.441623
 C        -0.884492        -0.160354         2.128139
 H         1.541235         0.109408         0.720867
 H        -2.130902         0.436948        -1.081587
 H        -2.130149        -1.032363         0.049926
 H        -3.496330         1.464998         0.893797
 H        -1.013329         2.325578        -0.067194
 H        -0.041396         2.553447         2.649937
 H        -1.364664         3.517228         2.335878
 H        -2.897197         0.038190         3.010234
 H        -0.101572        -0.002800         2.878177
 H        -1.047464        -1.276740         2.169811
