19
Iteration:    46
 O         0.681430         0.313364         0.295373
 C        -0.605395         0.446329         0.801317
 C        -1.914411         0.063285        -0.009542
 C        -2.539209         1.061963         0.954247
 C        -1.264732         1.916092         0.873056
 C        -0.929210         2.505302         2.229371
 O        -1.801643         1.621866         3.083290
 C        -2.192920         0.478522         2.382566
 C        -0.881928        -0.295012         2.074841
 H         1.164533        -0.231416         0.926600
 H        -1.811279         0.522258        -1.024462
 H        -2.317028        -0.921384        -0.088825
 H        -3.513484         1.455423         0.886292
 H        -1.250113         2.463864        -0.047513
 H         0.115804         2.364928         2.539234
 H        -1.222837         3.491194         2.444024
 H        -2.953685        -0.047408         2.984607
 H        -0.156331        -0.336392         2.889865
 H        -1.092261        -1.329777         1.771905
