19
Iteration:  1646
 O         0.714861         0.216189         0.131677
 C        -0.611275         0.425145         0.670378
 C        -1.794182         0.028241        -0.076538
 C        -2.526609         0.908596         0.988058
 C        -1.232566         1.871874         0.929378
 C        -1.118286         2.531940         2.296046
 O        -1.870342         1.698745         3.250935
 C        -2.184108         0.564955         2.443667
 C        -0.802109        -0.136079         2.138345
 H         0.614403        -0.554859        -0.419625
 H        -1.861771         0.482758        -1.200198
 H        -1.955569        -1.083206        -0.177553
 H        -3.506854         1.247384         0.770328
 H        -1.230317         2.622503         0.144114
 H         0.022195         2.438345         2.645388
 H        -1.394385         3.546865         2.422168
 H        -2.817451        -0.068977         2.986858
 H        -0.105369         0.079080         2.977848
 H        -0.940862        -1.173204         2.074985
