19
Iteration:  2682
 O         0.656792         0.429628         0.145377
 C        -0.614261         0.363480         0.716565
 C        -1.939040        -0.133262         0.075925
 C        -2.511625         0.967333         0.945075
 C        -1.212052         1.834948         0.858263
 C        -1.090358         2.479011         2.247665
 O        -1.884386         1.766388         3.130651
 C        -2.089901         0.493201         2.416008
 C        -0.745740        -0.169770         2.194624
 H         1.077196        -0.368904         0.202732
 H        -2.285475         0.077775        -1.013716
 H        -2.093314        -1.208417         0.159095
 H        -3.483817         1.344223         1.002834
 H        -1.029392         2.613382         0.004646
 H        -0.009411         2.500354         2.631185
 H        -1.349062         3.459483         2.175230
 H        -2.916126        -0.089774         2.911249
 H         0.053365         0.286910         2.763429
 H        -0.783602        -1.253473         2.307428
