19
Iteration:  1957charge 0 multiplicity 1
 O         0.663758         0.245367         0.003271
 C        -0.623134         0.389506         0.756009
 C        -1.784077        -0.095285         0.031067
 C        -2.516086         0.948488         1.001938
 C        -1.214821         1.892623         0.909651
 C        -1.171946         2.618800         2.273876
 O        -1.822400         1.745327         3.228960
 C        -2.150209         0.483306         2.424300
 C        -0.815047        -0.165874         2.137084
 H         1.224607        -0.424734         0.230487
 H        -1.887829         0.266840        -1.015356
 H        -2.056926        -1.190902         0.212494
 H        -3.449699         1.328053         0.611199
 H        -0.988309         2.468497         0.045577
 H        -0.171109         2.790721         2.644162
 H        -1.586718         3.594575         2.247207
 H        -3.006035         0.056018         2.957357
 H        -0.151557         0.157229         2.825883
 H        -0.978514        -1.245224         2.129404
