19
Iteration:  4985
 O         0.692004         0.305299         0.158510
 C        -0.578196         0.317607         0.744868
 C        -1.829202        -0.035070         0.015781
 C        -2.547113         0.941868         0.946534
 C        -1.298203         1.804722         0.902625
 C        -1.233537         2.624458         2.176118
 O        -1.686684         1.763747         3.149639
 C        -2.138354         0.569682         2.476996
 C        -0.827385        -0.276043         2.132043
 H         1.316408        -0.316395         0.764283
 H        -1.862872         0.380166        -0.934443
 H        -2.065720        -1.058373         0.105562
 H        -3.534395         1.351815         0.758559
 H        -1.140776         2.396395        -0.083059
 H        -0.294239         3.037419         2.525846
 H        -1.988104         3.507105         2.117507
 H        -2.983163         0.161446         3.135538
 H        -0.018659        -0.039794         2.855723
 H        -0.977997        -1.380756         2.093676
