19
Iteration:  3808charge 0 multiplicity 1
 O         0.759980         0.249826         0.121710
 C        -0.586883         0.413042         0.706532
 C        -1.869797        -0.058011        -0.017269
 C        -2.523884         0.965673         0.996876
 C        -1.117664         1.795133         0.939788
 C        -1.076076         2.461591         2.308277
 O        -1.923329         1.789956         3.127881
 C        -2.201141         0.512966         2.470474
 C        -0.845038        -0.151193         2.192298
 H         0.710801         0.731341        -0.678179
 H        -2.228656         0.389495        -0.998616
 H        -2.103010        -1.145353        -0.259995
 H        -3.555185         1.397895         0.918846
 H        -1.102379         2.459939        -0.018222
 H         0.013632         2.394900         2.693031
 H        -1.404488         3.515440         2.187409
 H        -2.935036         0.023176         3.113737
 H        -0.002200         0.082635         2.888875
 H        -1.024313        -1.250324         2.014638
