19
Iteration:  1046charge 0 multiplicity 1
 O         0.726433         0.274442         0.121688
 C        -0.578978         0.400320         0.722065
 C        -1.875613        -0.013062        -0.074994
 C        -2.555676         1.041316         1.037096
 C        -1.236620         1.873491         0.931014
 C        -1.028051         2.476965         2.331439
 O        -1.912779         1.720948         3.128906
 C        -2.182361         0.514544         2.391189
 C        -0.805446        -0.192359         2.130613
 H         0.992799        -0.599237         0.286135
 H        -1.837433         0.341918        -1.139626
 H        -2.194754        -1.042489         0.004795
 H        -3.419977         1.619148         0.862308
 H        -1.321570         2.457361         0.065393
 H         0.029284         2.273975         2.771651
 H        -1.282393         3.538471         2.542327
 H        -2.835566        -0.108190         3.063517
 H        -0.063303         0.134889         2.866487
 H        -0.829286        -1.242635         2.054497
