19
Iteration:  2742
 O         0.678459         0.343010         0.150131
 C        -0.544379         0.330015         0.773303
 C        -1.911807        -0.065776         0.043865
 C        -2.491824         0.999230         0.954730
 C        -1.226513         1.806142         0.937701
 C        -1.175873         2.622555         2.183879
 O        -1.885291         1.780016         3.174304
 C        -2.054503         0.469157         2.478467
 C        -0.753287        -0.226328         2.111682
 H         0.842388        -0.568703        -0.349953
 H        -1.901316         0.252432        -0.967874
 H        -2.162805        -1.172239         0.053071
 H        -3.560022         1.485507         0.722928
 H        -1.209815         2.410658         0.065110
 H        -0.174200         2.815713         2.556215
 H        -1.864425         3.625626         2.052154
 H        -2.812491        -0.160619         3.060824
 H         0.124698        -0.028117         2.823986
 H        -0.964938        -1.332354         2.007706
