19
Iteration:  2396
 O         0.668867         0.203326         0.029070
 C        -0.547246         0.372263         0.669125
 C        -1.777140        -0.045343        -0.012675
 C        -2.558866         0.905778         1.058195
 C        -1.307936         1.827435         0.894069
 C        -1.057437         2.507112         2.241753
 O        -1.968527         1.814451         3.174356
 C        -2.098069         0.522526         2.504520
 C        -0.777553        -0.124345         2.152984
 H         1.297105         0.511903         0.590494
 H        -1.939782         0.384163        -1.002938
 H        -2.018756        -1.077078         0.060923
 H        -3.686968         1.207887         0.912674
 H        -1.105583         2.663025         0.073292
 H         0.010083         2.505786         2.597328
 H        -1.469507         3.508475         2.269959
 H        -2.753978        -0.102926         3.116681
 H        -0.120836         0.256041         2.890402
 H        -0.825631        -1.221324         2.146099
