19
Iteration:  1641charge 0 multiplicity 1
 O         0.691602         0.230975         0.138117
 C        -0.573317         0.434383         0.718212
 C        -1.817462         0.009172        -0.080622
 C        -2.528270         0.934389         0.942990
 C        -1.259769         1.881088         0.915706
 C        -1.086943         2.495739         2.369376
 O        -1.858745         1.734247         3.226322
 C        -2.137243         0.518880         2.429570
 C        -0.826042        -0.125675         2.129298
 H         0.707860        -0.664058        -0.403392
 H        -1.878844         0.492726        -0.973358
 H        -1.942814        -1.072610        -0.188199
 H        -3.617454         1.215894         0.742069
 H        -1.261535         2.550311         0.031357
 H        -0.051932         2.446050         2.541838
 H        -1.478130         3.589531         2.361296
 H        -2.918161        -0.100509         3.005170
 H        -0.076321         0.119182         2.874915
 H        -0.951232        -1.281633         2.101674
