19
Iteration:   125charge 0 multiplicity 1
 O         0.708256         0.046233         0.177050
 C        -0.527371         0.513127         0.741318
 C        -1.837998         0.033850        -0.045811
 C        -2.513277         1.004376         0.900059
 C        -1.221996         1.996874         0.867793
 C        -1.049301         2.505268         2.385128
 O        -1.991871         1.671504         3.190284
 C        -2.095030         0.514644         2.432505
 C        -0.825080        -0.131458         2.120309
 H         0.468359        -0.401043        -0.575689
 H        -1.828701         0.596223        -1.064659
 H        -2.113517        -1.022436        -0.131836
 H        -3.566330         1.388061         0.900720
 H        -1.175901         2.729292         0.013206
 H        -0.040768         2.327336         2.865376
 H        -1.317512         3.478806         2.566840
 H        -2.793362        -0.171610         2.999249
 H        -0.061851         0.035577         2.894116
 H        -1.084765        -1.177156         1.856904
