19
Iteration:  4092charge 0 multiplicity 1
 O         0.769147         0.277233         0.203173
 C        -0.560512         0.414352         0.720118
 C        -1.973607        -0.024185        -0.008456
 C        -2.577037         1.047906         0.972051
 C        -1.157463         1.804855         0.925806
 C        -1.005185         2.504997         2.317938
 O        -1.972922         1.738891         3.117377
 C        -2.181060         0.455158         2.407212
 C        -0.756033        -0.202248         2.136354
 H         0.623734         0.426116        -0.831123
 H        -1.988213         0.341324        -1.052827
 H        -2.337690        -1.088832         0.152638
 H        -3.572689         1.435944         0.941696
 H        -0.983105         2.524493         0.039896
 H        -0.011212         2.533424         2.757318
 H        -1.313993         3.541254         2.420912
 H        -2.687387        -0.372746         2.848524
 H        -0.017492         0.165787         2.898479
 H        -0.815295        -1.266549         2.060509
