19
Iteration:  1598
 O         0.749708         0.440625         0.106246
 C        -0.568446         0.400647         0.692691
 C        -1.948832        -0.055486         0.005855
 C        -2.483013         0.990933         0.985545
 C        -1.198927         1.765550         0.874186
 C        -0.992252         2.460423         2.287271
 O        -1.883571         1.719056         3.192168
 C        -2.183297         0.529679         2.435217
 C        -0.902814        -0.239200         2.099455
 H         1.243909        -0.148697         0.662066
 H        -2.048634         0.307882        -0.976472
 H        -2.492895        -1.072008         0.076474
 H        -3.453740         1.602049         0.864638
 H        -0.891598         2.413570         0.034316
 H        -0.046906         2.616106         2.866690
 H        -1.547974         3.491256         2.204330
 H        -2.969539        -0.109041         3.005460
 H        -0.156551         0.012015         2.835306
 H        -1.054549        -1.384587         2.096598
