19
Iteration:  3702
 O         0.737711         0.240316         0.197525
 C        -0.547582         0.412600         0.746892
 C        -1.876395        -0.026187         0.039763
 C        -2.551654         1.003002         1.037065
 C        -1.261436         1.839391         0.926119
 C        -1.104682         2.559771         2.187230
 O        -1.884810         1.774658         3.113998
 C        -2.185213         0.463381         2.459830
 C        -0.747732        -0.270748         2.087076
 H         0.711733         0.048257        -0.689265
 H        -1.902608         0.419214        -0.979271
 H        -1.958177        -1.038658         0.088156
 H        -3.551919         1.575205         1.002327
 H        -1.165331         2.418285         0.045036
 H        -0.112080         2.739290         2.491937
 H        -1.593143         3.582077         2.047468
 H        -2.919823         0.006779         3.177692
 H        -0.115601         0.061050         2.940996
 H        -0.635841        -1.319145         2.099911
