19
Iteration:  1897
 O         0.743278         0.432758         0.174598
 C        -0.612364         0.387300         0.708659
 C        -1.968932        -0.056203        -0.054722
 C        -2.522586         0.980536         1.022166
 C        -1.206853         1.767701         0.883427
 C        -1.041697         2.471486         2.237148
 O        -1.862880         1.745146         3.171712
 C        -2.145224         0.537936         2.465389
 C        -0.804597        -0.199416         2.164681
 H         1.046982        -0.469802         0.396986
 H        -2.270187         0.217831        -1.069936
 H        -2.281278        -1.078176         0.054022
 H        -3.494130         1.419115         0.761308
 H        -1.235963         2.352450        -0.075163
 H         0.029817         2.492318         2.408494
 H        -1.471191         3.523642         1.872744
 H        -2.849285        -0.091733         2.992669
 H         0.132508        -0.061362         2.878055
 H        -0.958133        -1.303450         2.135528
