19
Iteration:  1879charge 0 multiplicity 1
 O         0.682541         0.444515         0.114836
 C        -0.573117         0.401587         0.799661
 C        -1.857188        -0.056169         0.150201
 C        -2.597652         0.927768         0.977208
 C        -1.273631         1.836706         0.839157
 C        -0.979761         2.509951         2.230366
 O        -1.829829         1.727663         3.116638
 C        -2.174621         0.513788         2.430989
 C        -0.877897        -0.257169         2.113018
 H         1.195744        -0.373023         0.028892
 H        -1.663553         0.103923        -1.016245
 H        -2.117284        -1.134323         0.085932
 H        -3.552702         1.502026         0.823744
 H        -1.077945         2.502007        -0.036942
 H         0.088349         2.351483         2.522235
 H        -1.195104         3.561848         2.346580
 H        -3.070968         0.119789         2.993054
 H        -0.280409        -0.050276         2.969942
 H        -0.860785        -1.338283         2.103695
