19
Iteration:  3620charge 0 multiplicity 1
 O         0.641710         0.292543         0.069136
 C        -0.621616         0.386774         0.719063
 C        -1.797664        -0.073435        -0.027002
 C        -2.533405         0.913441         0.959685
 C        -1.239510         1.770476         0.940957
 C        -1.123633         2.585867         2.237802
 O        -1.824790         1.814588         3.184153
 C        -2.172897         0.544872         2.478009
 C        -0.769988        -0.210636         2.165664
 H         1.211293        -0.040139         0.698559
 H        -1.739267         0.122514        -1.078064
 H        -1.961851        -1.217850         0.068107
 H        -3.523488         1.245198         0.921515
 H        -1.115919         2.491238         0.029201
 H        -0.129171         2.833882         2.610878
 H        -1.657305         3.496726         1.979733
 H        -2.982702         0.152524         3.083996
 H         0.048455         0.065143         2.830394
 H        -1.012109        -1.358875         2.121784
