19
Iteration:  2572charge 0 multiplicity 1
 O         0.594270         0.271586        -0.016393
 C        -0.561264         0.392691         0.724934
 C        -1.781525        -0.071803         0.039317
 C        -2.498121         0.914438         0.943848
 C        -1.210461         1.822323         0.926702
 C        -1.108925         2.549341         2.254100
 O        -1.907374         1.808363         3.208444
 C        -2.189555         0.507315         2.471453
 C        -0.776622        -0.223689         2.172969
 H         1.315554         0.867356         0.483898
 H        -1.901864         0.296503        -1.045776
 H        -1.967456        -1.180196         0.115886
 H        -3.577836         1.125980         0.831248
 H        -0.909592         2.609315         0.092971
 H        -0.004134         2.620392         2.647666
 H        -1.455047         3.512571         2.151316
 H        -2.909424        -0.001158         3.095709
 H        -0.210175        -0.003764         3.066088
 H        -0.753957        -1.306494         2.094365
