19
Iteration:  1440
 O         0.726960         0.257951         0.216185
 C        -0.597608         0.462197         0.733778
 C        -1.934419         0.041432        -0.017032
 C        -2.567171         1.043841         0.985823
 C        -1.308465         1.869690         0.848373
 C        -1.034591         2.531905         2.270953
 O        -1.841151         1.614038         3.132045
 C        -2.093777         0.511165         2.419751
 C        -0.819442        -0.250577         2.087950
 H         1.300313         0.077650         0.972614
 H        -1.991955         0.537418        -1.060794
 H        -2.093744        -0.983656        -0.100970
 H        -3.626607         1.350331         1.021951
 H        -1.133323         2.334305        -0.156271
 H         0.028773         2.592211         2.455896
 H        -1.489784         3.589174         2.518945
 H        -2.821865        -0.120990         2.895392
 H        -0.083731         0.000086         2.957050
 H        -0.890642        -1.336680         1.978102
