19
Iteration:  1764
 O         0.687914         0.332594         0.071815
 C        -0.579585         0.372690         0.696884
 C        -1.919223        -0.022222         0.042468
 C        -2.546569         0.977595         1.030567
 C        -1.208323         1.805679         0.884567
 C        -1.032767         2.533305         2.243322
 O        -1.890532         1.689811         3.138208
 C        -2.148318         0.545481         2.467784
 C        -0.832781        -0.224479         2.166729
 H         1.451283         0.442822         0.799510
 H        -1.897379         0.218116        -0.946905
 H        -2.124109        -1.091377        -0.000350
 H        -3.475500         1.477277         0.731091
 H        -0.974534         2.343214        -0.028581
 H        -0.079851         2.730764         2.627226
 H        -1.507661         3.587361         2.208674
 H        -2.914078         0.019848         2.990877
 H         0.026172        -0.123897         2.915818
 H        -0.950800        -1.311241         1.962681
