19
Iteration:  1263
 O         0.642014         0.177206         0.214912
 C        -0.575512         0.432704         0.694839
 C        -1.824885         0.043553        -0.124783
 C        -2.532207         0.949379         1.013465
 C        -1.284518         1.922718         0.882088
 C        -1.067413         2.616089         2.229347
 O        -1.777019         1.639626         3.239894
 C        -2.174061         0.471436         2.451294
 C        -0.866360        -0.156394         2.077657
 H         1.428678        -0.081701         0.864988
 H        -1.908924         0.442292        -1.155033
 H        -1.892952        -1.039435        -0.173885
 H        -3.503224         1.438794         0.929101
 H        -1.409349         2.532504        -0.003940
 H        -0.027432         2.736320         2.468637
 H        -1.529766         3.706869         2.395502
 H        -2.952515        -0.179702         2.957250
 H        -0.090505        -0.206066         2.884258
 H        -0.949837        -1.266606         1.882745
