19
Iteration:   730
 O         0.696664         0.265553         0.042880
 C        -0.525379         0.373362         0.721548
 C        -1.860082         0.068098        -0.010295
 C        -2.476932         1.019226         0.981425
 C        -1.116394         1.853125         0.934815
 C        -1.073913         2.546422         2.335353
 O        -1.958693         1.734213         3.191068
 C        -2.206391         0.488059         2.392262
 C        -0.873099        -0.237646         2.165827
 H         0.775187        -0.661877         0.011527
 H        -2.054354         0.280345        -1.119836
 H        -2.179598        -0.976232         0.116765
 H        -3.469866         1.500846         0.796573
 H        -1.039427         2.419113        -0.006363
 H        -0.005054         2.466889         2.706622
 H        -1.232573         3.526396         2.251255
 H        -2.893419        -0.173628         3.045617
 H        -0.236689         0.138650         3.004051
 H        -0.780755        -1.329135         2.209723
