19
Iteration:  1393
 O         0.733820         0.266945         0.038248
 C        -0.550302         0.394765         0.705952
 C        -1.886984         0.032476        -0.041082
 C        -2.500323         1.002852         1.016484
 C        -1.140530         1.909580         0.934581
 C        -1.207202         2.511239         2.251099
 O        -1.840399         1.691585         3.208226
 C        -2.185536         0.514491         2.429123
 C        -0.858666        -0.290867         2.179931
 H         1.436768         0.304662         0.598317
 H        -1.905751         0.339288        -1.076840
 H        -2.320206        -1.010454         0.037117
 H        -3.472466         1.548489         0.901645
 H        -0.966984         2.489367         0.047938
 H        -0.178286         2.679219         2.624664
 H        -1.613154         3.596723         2.173134
 H        -2.982806        -0.046774         3.026404
 H        -0.045936        -0.260659         2.967509
 H        -1.183562        -1.363626         2.051651
