19
Iteration:  2633charge 0 multiplicity 1
 O         0.653245         0.260537         0.095194
 C        -0.559179         0.390376         0.701400
 C        -1.793350         0.005130        -0.037679
 C        -2.507038         0.865118         1.005684
 C        -1.350851         1.829699         0.959870
 C        -1.135957         2.596495         2.224553
 O        -1.797167         1.741411         3.154346
 C        -2.097158         0.521339         2.497637
 C        -0.810127        -0.143115         2.123937
 H         1.203911        -0.291337         0.824689
 H        -1.819458         0.274616        -1.041959
 H        -2.136713        -1.065164        -0.162353
 H        -3.632967         1.045391         0.794421
 H        -1.377374         2.388903         0.086139
 H        -0.113161         2.806504         2.429191
 H        -1.707469         3.655350         2.233779
 H        -2.792197        -0.038861         3.126242
 H        -0.163813         0.223611         2.989936
 H        -1.004630        -1.298862         2.030939
