19
Iteration:  1177
 O         0.609927         0.154146         0.048661
 C        -0.546701         0.467775         0.679858
 C        -1.848292         0.054476         0.027662
 C        -2.484350         0.982302         1.033725
 C        -1.141125         1.970798         0.905551
 C        -1.050476         2.477130         2.338658
 O        -1.963044         1.712538         3.155219
 C        -2.167813         0.448417         2.374047
 C        -0.845949        -0.241335         2.166802
 H         1.286977         0.646669         0.514926
 H        -1.785900         0.387137        -1.106410
 H        -1.906027        -1.042543         0.101779
 H        -3.480817         1.397710         0.902022
 H        -1.218817         2.670650         0.060702
 H         0.030890         2.340416         2.689737
 H        -1.278213         3.530010         2.408438
 H        -3.041185        -0.044492         2.909608
 H        -0.082900         0.151183         2.893566
 H        -0.760520        -1.315813         2.054885
