19
Iteration:  2507
 O         0.723417         0.194728         0.139745
 C        -0.586445         0.438456         0.654865
 C        -1.889710        -0.069733        -0.006917
 C        -2.589569         0.951283         1.029987
 C        -1.307009         1.894584         0.841200
 C        -1.162040         2.574720         2.250422
 O        -1.817188         1.729951         3.205602
 C        -2.090153         0.473780         2.438841
 C        -0.782861        -0.152992         2.130595
 H         1.374758         0.026804         0.967830
 H        -1.964699         0.364053        -1.027637
 H        -2.093690        -1.052010         0.089658
 H        -3.644562         1.326969         1.037605
 H        -1.149480         2.633858        -0.071976
 H        -0.089720         2.668447         2.514122
 H        -1.585419         3.552322         2.156134
 H        -2.809839        -0.131355         2.985486
 H         0.046811         0.162601         2.762323
 H        -0.587476        -1.161895         2.002164
