19
Iteration:  4479
 O         0.765659         0.365676         0.248977
 C        -0.598076         0.354505         0.678680
 C        -1.903895         0.001294        -0.062559
 C        -2.571069         1.049491         0.989669
 C        -1.281552         1.783784         0.887534
 C        -1.024340         2.413304         2.336996
 O        -1.901843         1.761827         3.189240
 C        -2.143124         0.480952         2.412891
 C        -0.781270        -0.228441         2.065535
 H         0.728741        -0.040614        -0.557441
 H        -2.003743         0.592021        -1.005564
 H        -2.302971        -1.007044        -0.086171
 H        -3.635358         1.458428         0.890165
 H        -1.070719         2.551189         0.187397
 H         0.005553         2.321936         2.794717
 H        -1.163690         3.525765         2.255902
 H        -2.886866        -0.104313         2.978322
 H        -0.075698         0.215618         2.707747
 H        -0.670090        -1.301593         2.136895
