19
Iteration:  3754charge 0 multiplicity 1
 O         0.677993         0.236885         0.089304
 C        -0.563737         0.429408         0.765283
 C        -1.817481        -0.032276         0.006677
 C        -2.547977         0.955801         0.967274
 C        -1.211282         1.863203         0.916306
 C        -1.078908         2.575288         2.221882
 O        -1.805246         1.675809         3.209603
 C        -2.223010         0.509107         2.414774
 C        -0.853242        -0.146411         2.117768
 H         1.240829        -0.118967         0.747761
 H        -1.966810         0.377899        -1.050816
 H        -2.171020        -1.111780         0.100629
 H        -3.610970         1.282148         0.781233
 H        -1.374026         2.357938        -0.122104
 H        -0.053608         2.739234         2.576638
 H        -1.573777         3.601090         2.153818
 H        -2.917297        -0.065344         3.037763
 H        -0.092700         0.285740         2.857459
 H        -0.788855        -1.292490         2.224800
