19
Iteration:   965charge 0 multiplicity 1
 O         0.760225         0.271396         0.182392
 C        -0.614879         0.441323         0.633843
 C        -1.859071         0.005522        -0.097864
 C        -2.503175         1.024535         1.010630
 C        -1.281448         1.848639         0.934004
 C        -1.037641         2.512598         2.282105
 O        -1.827037         1.736881         3.196512
 C        -2.118676         0.475532         2.412461
 C        -0.942320        -0.209604         2.121132
 H         0.857158        -0.610617         0.400151
 H        -1.879126         0.300754        -1.149933
 H        -2.224690        -1.139956        -0.061673
 H        -3.569892         1.453329         0.920585
 H        -1.230703         2.591831         0.061207
 H        -0.027229         2.574435         2.853665
 H        -1.382905         3.487185         2.422344
 H        -2.894388        -0.043816         2.947618
 H        -0.113289        -0.054008         2.829086
 H        -1.068880        -1.358654         2.168608
