19
Iteration:  1996charge 0 multiplicity 1
 O         0.689367         0.371705         0.141735
 C        -0.558913         0.376703         0.689767
 C        -1.968624         0.007594         0.094205
 C        -2.511928         0.923374         1.040600
 C        -1.249702         1.819044         0.869878
 C        -1.033797         2.505863         2.164078
 O        -1.925668         1.773268         3.098471
 C        -2.114704         0.458058         2.449777
 C        -0.803912        -0.192100         2.179852
 H         1.189234        -0.409639         0.546500
 H        -2.124777         0.359169        -0.956105
 H        -2.058258        -1.023757         0.044569
 H        -3.513586         1.398379         1.104105
 H        -1.132854         2.435925        -0.074642
 H         0.054045         2.470950         2.461320
 H        -1.247858         3.635334         2.257452
 H        -2.828818        -0.249906         2.901068
 H         0.205276         0.098723         2.741909
 H        -0.763823        -1.301208         2.281019
