19
Iteration:   106
 O         0.678099         0.148503         0.182262
 C        -0.582072         0.385061         0.720379
 C        -1.831596         0.175072        -0.044924
 C        -2.483595         1.039141         1.048565
 C        -1.153954         1.836064         1.047378
 C        -1.096528         2.537450         2.328213
 O        -2.002131         1.764271         3.083598
 C        -2.191032         0.455572         2.371627
 C        -0.727964        -0.270213         2.066423
 H         0.648024        -0.507930        -0.434611
 H        -1.956770         0.615550        -1.050077
 H        -2.146746        -0.961986         0.021472
 H        -3.526213         1.534457         1.036637
 H        -1.014009         2.447232         0.117618
 H        -0.047442         2.592924         2.750612
 H        -1.344070         3.631321         2.199119
 H        -2.927339        -0.119357         2.902152
 H         0.071656         0.197610         2.748375
 H        -0.669360        -1.423611         2.018790
