19
Iteration:   405
 O         0.760082         0.096654         0.101406
 C        -0.524280         0.414258         0.623690
 C        -1.923758         0.071019         0.007332
 C        -2.476420         1.056111         1.001594
 C        -1.146122         1.812745         0.931604
 C        -1.116577         2.440161         2.317131
 O        -1.998626         1.731385         3.223761
 C        -2.212830         0.553325         2.407857
 C        -0.813006        -0.142778         2.054708
 H         1.544267         0.150136         0.816297
 H        -2.114765         0.587803        -1.045371
 H        -2.288379        -0.968706        -0.041378
 H        -3.426052         1.619450         0.803946
 H        -0.997755         2.596347         0.161587
 H        -0.089210         2.492794         2.896528
 H        -1.442209         3.478057         2.267479
 H        -2.880794        -0.133027         3.072694
 H        -0.008407         0.214274         2.757166
 H        -0.823176        -1.242298         1.988441
