19
Iteration:  4854charge 0 multiplicity 1
 O         0.770474         0.082958         0.214230
 C        -0.543624         0.444674         0.687086
 C        -1.905000         0.031707        -0.016126
 C        -2.562881         0.967843         1.035718
 C        -1.208993         1.811348         0.884782
 C        -1.165651         2.620509         2.228949
 O        -1.856068         1.706518         3.235615
 C        -2.113535         0.546064         2.413068
 C        -0.823029        -0.188369         2.079484
 H         1.121142         0.776980        -0.283067
 H        -2.022483         0.459148        -0.971795
 H        -2.234211        -0.952240        -0.116495
 H        -3.581676         1.397267         0.872920
 H        -1.245153         2.419844        -0.116827
 H        -0.108457         2.835110         2.586403
 H        -1.856032         3.532301         2.317045
 H        -2.811223        -0.132720         3.054113
 H         0.048150         0.016394         2.752294
 H        -0.956944        -1.289936         1.972584
