19
Iteration:  1881charge 0 multiplicity 1
 O         0.689717         0.448280         0.120649
 C        -0.558777         0.404691         0.786549
 C        -1.870656        -0.052873         0.135063
 C        -2.597051         0.941627         0.972548
 C        -1.270813         1.820627         0.844407
 C        -0.996694         2.500504         2.204929
 O        -1.827402         1.740774         3.128353
 C        -2.181154         0.505266         2.437875
 C        -0.871898        -0.249014         2.111912
 H         1.266188        -0.443047         0.037465
 H        -1.704425         0.130880        -0.964254
 H        -2.169844        -1.154824         0.104554
 H        -3.577396         1.460781         0.877709
 H        -1.003237         2.476842         0.033123
 H         0.069724         2.367914         2.556494
 H        -1.192540         3.483683         2.393524
 H        -3.034103         0.097089         3.045068
 H        -0.298712        -0.026806         2.936687
 H        -0.885751        -1.348075         2.086108
