19
Iteration:  2815charge 0 multiplicity 1
 O         0.734593         0.310947         0.155583
 C        -0.570322         0.432044         0.645340
 C        -1.922049        -0.014983        -0.024450
 C        -2.496044         0.854648         1.070356
 C        -1.301455         1.812365         0.888616
 C        -1.035542         2.475660         2.210058
 O        -1.938400         1.817705         3.112085
 C        -2.079034         0.472103         2.478114
 C        -0.815409        -0.157343         2.123046
 H         1.140054         0.118999         1.000598
 H        -2.107513         0.351331        -1.049247
 H        -2.324865        -1.011870        -0.014279
 H        -3.444787         1.369277         1.072877
 H        -1.326656         2.440814         0.027098
 H         0.096816         2.371283         2.486265
 H        -1.298927         3.497316         2.211860
 H        -2.682716        -0.139838         3.271262
 H        -0.188153         0.167495         3.017747
 H        -0.859348        -1.205284         2.003873
