19
Iteration:  2559charge 0 multiplicity 1
 O         0.577949         0.303566        -0.052413
 C        -0.537897         0.427049         0.827063
 C        -1.750444        -0.043652         0.029651
 C        -2.482938         0.913628         0.998290
 C        -1.257667         1.813413         0.904696
 C        -1.067787         2.488097         2.232203
 O        -1.944697         1.764167         3.145266
 C        -2.136996         0.538618         2.480916
 C        -0.821566        -0.206586         2.261777
 H         1.370783         0.746588         0.224372
 H        -1.590059         0.361082        -1.010003
 H        -2.147963        -1.171604         0.053873
 H        -3.504468         1.373598         0.730066
 H        -1.265268         2.376846        -0.095511
 H         0.035949         2.400137         2.583277
 H        -1.360623         3.506735         2.250074
 H        -2.892112        -0.028438         2.929279
 H         0.050435         0.041153         2.844650
 H        -1.067262        -1.347765         2.199523
