19
Iteration:   269charge 0 multiplicity 1
 O         0.674736         0.145038        -0.021150
 C        -0.547640         0.366090         0.697453
 C        -1.775735         0.004216        -0.070726
 C        -2.442356         1.028706         0.984432
 C        -1.138402         1.774699         0.935619
 C        -1.086680         2.531310         2.324521
 O        -2.047926         1.804369         3.273237
 C        -2.244456         0.562252         2.507969
 C        -0.876428        -0.218262         2.133228
 H         1.442805         0.471017         0.564001
 H        -1.667920         0.390065        -1.059355
 H        -2.008887        -1.090203        -0.275024
 H        -3.261827         1.740049         0.812446
 H        -0.973397         2.373889         0.011780
 H        -0.020209         2.599203         2.750652
 H        -1.343528         3.655122         2.239027
 H        -2.884918        -0.070265         3.052188
 H         0.043273        -0.004594         2.707524
 H        -0.921642        -1.339087         2.025339
