19
Iteration:  1372charge 0 multiplicity 1
 O         0.624266         0.144445         0.117241
 C        -0.582869         0.415245         0.727586
 C        -1.863579         0.070319         0.018367
 C        -2.552666         1.000141         1.010420
 C        -1.194691         1.837991         0.956846
 C        -1.066458         2.620472         2.324278
 O        -1.956841         1.669097         3.156111
 C        -2.099573         0.484634         2.366520
 C        -0.759658        -0.221856         2.026959
 H         1.425882         0.476856         0.716856
 H        -1.822418         0.399383        -1.023272
 H        -2.087919        -0.988558        -0.041522
 H        -3.525521         1.553932         0.920742
 H        -1.103323         2.422624         0.043236
 H        -0.134261         2.627199         2.865399
 H        -1.415488         3.756387         2.350591
 H        -2.945348        -0.076988         2.871885
 H         0.046536         0.158294         2.761448
 H        -0.586168        -1.329275         1.997075
