19
Iteration:  3751charge 0 multiplicity 1
 O         0.693752         0.250394         0.070947
 C        -0.567432         0.402270         0.769210
 C        -1.798230        -0.031490        -0.014152
 C        -2.569488         0.986742         0.944935
 C        -1.229717         1.837551         0.930923
 C        -1.117501         2.596008         2.221257
 O        -1.796468         1.699841         3.225514
 C        -2.223256         0.504719         2.437182
 C        -0.843047        -0.172274         2.119545
 H         1.254152        -0.303393         0.800131
 H        -1.925250         0.367769        -1.013066
 H        -2.214353        -1.120498         0.180362
 H        -3.552673         1.327675         0.709836
 H        -1.376195         2.352318        -0.091866
 H         0.012030         2.742729         2.544522
 H        -1.525852         3.577453         2.217242
 H        -2.937350        -0.056706         3.016382
 H        -0.065703         0.227140         2.762643
 H        -0.734591        -1.290353         2.232490
