19
Iteration:  2873charge 0 multiplicity 1
 O         0.686331         0.145019        -0.035205
 C        -0.498098         0.414588         0.771870
 C        -1.798795        -0.014765         0.053210
 C        -2.516965         0.974166         1.025760
 C        -1.231595         1.837497         0.916896
 C        -1.206306         2.614031         2.216159
 O        -1.889450         1.716676         3.176499
 C        -2.163913         0.556545         2.449970
 C        -0.795932        -0.242494         2.158022
 H         1.389909         0.705714         0.385390
 H        -1.871741         0.443611        -0.906005
 H        -2.060016        -1.104032         0.119360
 H        -3.541974         1.458272         0.881565
 H        -1.067359         2.494336         0.034533
 H        -0.173510         2.927931         2.660366
 H        -1.767048         3.464018         2.240454
 H        -2.940997         0.017016         3.079168
 H        -0.200841        -0.068784         3.076548
 H        -0.871767        -1.299681         2.069825
