19
Iteration:  2919
 O         0.673522         0.184572         0.139423
 C        -0.566136         0.456941         0.739486
 C        -1.894334         0.012599         0.061555
 C        -2.555846         0.960921         1.003179
 C        -1.289392         1.898880         0.871823
 C        -1.120058         2.557739         2.221768
 O        -1.843917         1.700623         3.138434
 C        -2.135230         0.443658         2.413835
 C        -0.755974        -0.110308         2.124181
 H         1.290933        -0.288627         0.831109
 H        -1.775080         0.453262        -0.959515
 H        -2.090804        -1.101730         0.134026
 H        -3.587335         1.242952         0.793169
 H        -1.331159         2.480151        -0.130338
 H        -0.011533         2.649560         2.480364
 H        -1.543923         3.537814         2.330748
 H        -2.724985        -0.155325         3.042633
 H         0.060506         0.142507         2.768363
 H        -0.655841        -1.258759         2.042547
