19
Iteration:  1262
 O         0.640115         0.175252         0.219566
 C        -0.572158         0.431831         0.689325
 C        -1.820614         0.041193        -0.126586
 C        -2.532734         0.958987         1.019357
 C        -1.294644         1.930702         0.880122
 C        -1.065489         2.611861         2.230043
 O        -1.781785         1.642929         3.243782
 C        -2.170618         0.468904         2.449837
 C        -0.865107        -0.161664         2.075754
 H         1.396464        -0.077052         0.841953
 H        -1.900296         0.424076        -1.097536
 H        -1.890322        -1.055264        -0.198736
 H        -3.494477         1.426566         0.944709
 H        -1.366217         2.522834        -0.004378
 H        -0.039978         2.739392         2.453130
 H        -1.521259         3.716780         2.369950
 H        -2.955881        -0.166774         2.942292
 H        -0.091131        -0.207302         2.863760
 H        -0.909737        -1.289167         1.871022
