19
Iteration:  2696charge 0 multiplicity 1
 O         0.714339         0.365009         0.151043
 C        -0.597313         0.443804         0.728819
 C        -1.900487        -0.120766        -0.014341
 C        -2.559162         0.927834         1.018389
 C        -1.310716         1.797003         0.829585
 C        -1.012517         2.518812         2.216495
 O        -1.905138         1.719262         3.190088
 C        -2.163966         0.542696         2.470196
 C        -0.718616        -0.107205         2.153569
 H         1.016617        -0.648278        -0.048373
 H        -1.735774         0.166034        -1.064282
 H        -2.322308        -1.122247         0.130616
 H        -3.570019         1.371750         0.756698
 H        -1.221938         2.332999        -0.100611
 H         0.068651         2.360259         2.481228
 H        -1.328095         3.583865         2.347024
 H        -2.875833        -0.137357         3.157372
 H         0.000101         0.383444         2.900490
 H        -0.722521        -1.147962         2.163195
