19
Iteration:  2971
 O         0.687153         0.501539         0.163552
 C        -0.573353         0.394822         0.759859
 C        -1.948828        -0.068123        -0.014807
 C        -2.519236         0.954691         1.061811
 C        -1.217999         1.752134         0.914764
 C        -0.998670         2.511711         2.148152
 O        -1.935483         1.815290         3.097027
 C        -2.133938         0.478956         2.417458
 C        -0.790994        -0.311917         2.230019
 H         1.004817        -0.408214        -0.052375
 H        -1.991095         0.316777        -1.000945
 H        -2.252328        -1.119299         0.049943
 H        -3.531132         1.450974         0.974114
 H        -1.127412         2.286030        -0.077425
 H        -0.003363         2.320018         2.633218
 H        -1.207958         3.535535         1.949537
 H        -2.933583        -0.054388         3.026670
 H         0.105869        -0.090600         2.895941
 H        -0.792154        -1.331283         2.238384
