19
Iteration:   115charge 0 multiplicity 1
 O         0.673134         0.078489         0.200526
 C        -0.559178         0.497916         0.738986
 C        -1.859390         0.120614        -0.030733
 C        -2.514957         0.999636         1.001337
 C        -1.188622         1.901501         0.998711
 C        -1.044614         2.544090         2.378018
 O        -2.003491         1.740890         3.071399
 C        -2.140828         0.447758         2.406445
 C        -0.734469        -0.198560         2.054243
 H         0.423030        -0.500260        -0.443502
 H        -1.746731         0.522295        -1.109768
 H        -2.198907        -0.959702        -0.121484
 H        -3.488546         1.460200         0.669720
 H        -1.151411         2.637167         0.146626
 H         0.014995         2.503115         2.814792
 H        -1.445251         3.490320         2.428958
 H        -2.900168        -0.116135         2.989331
 H         0.075298        -0.058292         2.819247
 H        -0.688292        -1.334713         1.908538
