19
Iteration:  2430charge 0 multiplicity 1
 O         0.669774         0.222129         0.114940
 C        -0.560487         0.445387         0.690066
 C        -1.896748        -0.035687         0.076874
 C        -2.537307         0.965532         1.028274
 C        -1.309673         1.900702         0.855360
 C        -1.062120         2.496690         2.201701
 O        -1.906282         1.712088         3.130054
 C        -2.136564         0.475990         2.442121
 C        -0.735089        -0.145627         2.171858
 H         1.397187         0.468895         0.738020
 H        -1.895788         0.189577        -1.005272
 H        -2.096066        -1.038674         0.205868
 H        -3.631117         1.246589         0.968519
 H        -1.149211         2.541292        -0.115192
 H         0.017876         2.558633         2.333112
 H        -1.458966         3.534215         2.178296
 H        -2.734598        -0.172935         3.044905
 H        -0.093357         0.201149         2.979626
 H        -0.616913        -1.205618         2.164297
