19
Iteration:  1245
 O         0.713075         0.167320         0.152313
 C        -0.623284         0.447055         0.742117
 C        -1.850661         0.062042        -0.013114
 C        -2.560186         1.029389         0.988702
 C        -1.299164         1.896549         0.924672
 C        -1.139561         2.519643         2.271762
 O        -1.833080         1.734746         3.165857
 C        -2.103651         0.510725         2.415136
 C        -0.769519        -0.306967         2.028368
 H         1.229646         0.009940         1.081611
 H        -1.861726         0.601659        -1.101310
 H        -2.194357        -0.979676        -0.032559
 H        -3.650087         1.336375         0.843964
 H        -1.137552         2.628671         0.023016
 H        -0.014096         2.517358         2.595809
 H        -1.496081         3.468345         2.422896
 H        -2.817713        -0.060491         3.013184
 H         0.001419         0.014386         2.772585
 H        -0.882292        -1.363842         2.005660
