19
Iteration:   752charge 0 multiplicity 1
 O         0.651703         0.285044         0.165454
 C        -0.583367         0.415582         0.817868
 C        -1.893706        -0.012848        -0.005152
 C        -2.502263         1.036629         0.932718
 C        -1.207098         1.901460         0.898153
 C        -1.018430         2.484412         2.308519
 O        -1.913993         1.718398         3.117125
 C        -2.150691         0.539340         2.435176
 C        -0.786182        -0.248507         2.160356
 H         0.649969        -0.656095        -0.300069
 H        -1.730268         0.455108        -1.072626
 H        -2.154917        -1.065218        -0.146895
 H        -3.543249         1.409004         0.843863
 H        -1.016138         2.685920         0.181904
 H         0.030504         2.618458         2.722139
 H        -1.341718         3.441746         2.179169
 H        -2.967037        -0.133835         2.906353
 H         0.045073        -0.445007         2.875003
 H        -0.970862        -1.241668         1.736992
