19
Iteration:  1134
 O         0.662475         0.245460         0.155802
 C        -0.593514         0.358615         0.694715
 C        -1.857496         0.068380        -0.085307
 C        -2.472968         1.017055         0.987357
 C        -1.217640         1.910875         0.926487
 C        -1.111190         2.603239         2.306094
 O        -1.802700         1.683382         3.159393
 C        -2.182226         0.467786         2.418230
 C        -0.823808        -0.323251         2.126757
 H         1.228949         0.122994         0.837041
 H        -2.170526         0.607964        -1.064325
 H        -2.313552        -0.910395        -0.039480
 H        -3.523293         1.306706         0.832936
 H        -1.088115         2.525045        -0.006195
 H        -0.034768         2.685693         2.688963
 H        -1.578475         3.492822         2.301511
 H        -3.008651        -0.119895         2.918723
 H        -0.117485         0.083634         2.866196
 H        -0.934871        -1.382709         2.137832
