19
Iteration:  4388charge 0 multiplicity 1
 O         0.720786         0.242559         0.226971
 C        -0.578447         0.421049         0.770156
 C        -1.887719         0.032225        -0.027935
 C        -2.528171         0.965215         0.974398
 C        -1.281317         1.886553         0.945316
 C        -1.054794         2.571246         2.276972
 O        -1.893257         1.665524         3.171142
 C        -2.101039         0.486722         2.412296
 C        -0.808569        -0.210180         2.053039
 H         0.656038         0.465090        -0.720734
 H        -1.986675         0.435745        -1.043356
 H        -2.220385        -1.016470         0.005015
 H        -3.526473         1.387305         0.757644
 H        -1.094942         2.432136        -0.067869
 H         0.014802         2.463989         2.777112
 H        -1.353589         3.586644         2.326154
 H        -2.809140        -0.172680         3.026721
 H        -0.005542        -0.114261         2.855206
 H        -0.926891        -1.323473         1.884711
