19
Iteration:  2220
 O         0.762820         0.113621         0.116242
 C        -0.548425         0.381658         0.618172
 C        -1.969534         0.015832        -0.026915
 C        -2.553168         0.970163         1.073068
 C        -1.258029         1.875016         0.877923
 C        -1.144751         2.536989         2.201214
 O        -1.922291         1.749903         3.210811
 C        -2.058811         0.484730         2.427677
 C        -0.719324        -0.145134         2.153457
 H         1.252071         0.611409         0.887316
 H        -2.118936         0.410541        -0.961752
 H        -2.273429        -0.964071        -0.102197
 H        -3.578537         1.484933         1.278361
 H        -1.157775         2.643390         0.011309
 H        -0.241703         2.756271         2.622172
 H        -1.659034         3.552859         2.045668
 H        -2.809134         0.003369         3.092414
 H         0.024524         0.033584         2.865992
 H        -0.754381        -1.280866         2.138349
