19
Iteration:  3483charge 0 multiplicity 1
 O         0.785080         0.262617         0.143262
 C        -0.534983         0.378918         0.775954
 C        -1.947672        -0.021917         0.006103
 C        -2.589705         0.867867         1.038054
 C        -1.324150         1.850405         0.846695
 C        -1.107312         2.654343         2.187190
 O        -1.911032         1.760293         3.119286
 C        -2.099051         0.519180         2.452282
 C        -0.727668        -0.205962         2.165580
 H         1.265262        -0.628208         0.396598
 H        -2.008415         0.440815        -1.015617
 H        -2.316279        -1.059217        -0.107037
 H        -3.617251         1.302983         1.053372
 H        -1.166748         2.458945        -0.032637
 H        -0.087843         2.736844         2.637278
 H        -1.541514         3.590347         2.061419
 H        -2.744254        -0.028889         3.132724
 H         0.007036         0.084868         2.929174
 H        -0.702953        -1.266429         2.091483
