19
Iteration:   671
 O         0.705995         0.267806         0.157600
 C        -0.599113         0.473649         0.766072
 C        -1.844153         0.031192        -0.048648
 C        -2.557622         0.966885         0.998937
 C        -1.269725         1.875824         0.895766
 C        -1.017311         2.515617         2.299028
 O        -1.800364         1.662843         3.094491
 C        -2.193987         0.589031         2.412950
 C        -0.874375        -0.293214         2.121648
 H         1.179939        -0.251223         0.897857
 H        -1.790053         0.567632        -0.955119
 H        -2.105730        -1.083415        -0.106190
 H        -3.569953         1.434763         0.903817
 H        -1.284580         2.610649         0.058748
 H        -0.026419         2.352017         2.609291
 H        -1.267127         3.631989         2.418237
 H        -2.863612         0.072596         3.049347
 H        -0.178137        -0.324694         2.947015
 H        -1.201856        -1.297806         1.800831
