19
Iteration:   805
 O         0.664312         0.355004         0.218104
 C        -0.573372         0.400420         0.773868
 C        -1.950148         0.062547        -0.061826
 C        -2.471122         1.006888         0.937171
 C        -1.225490         1.852875         0.861604
 C        -1.035616         2.535364         2.272033
 O        -1.843365         1.684535         3.156939
 C        -2.098147         0.495573         2.434206
 C        -0.910296        -0.287833         2.140102
 H         0.967562        -0.591364         0.384963
 H        -2.007972         0.269224        -1.127645
 H        -2.141198        -1.014807         0.044245
 H        -3.493766         1.482812         0.882837
 H        -0.923181         2.403427        -0.032402
 H         0.043134         2.430291         2.491694
 H        -1.315523         3.667516         2.369459
 H        -2.966870        -0.139370         2.823169
 H        -0.062718        -0.042156         2.795410
 H        -0.960174        -1.371548         2.096146
