19
Iteration:  2391
 O         0.695782         0.210674        -0.005112
 C        -0.532176         0.382906         0.694241
 C        -1.813340        -0.034409         0.010647
 C        -2.551321         0.925431         1.050899
 C        -1.268030         1.825551         0.890937
 C        -1.079185         2.525249         2.202649
 O        -1.974094         1.804919         3.183442
 C        -2.097642         0.498130         2.503278
 C        -0.788551        -0.150443         2.157456
 H         1.371285         0.562706         0.705202
 H        -2.117854         0.416016        -0.951941
 H        -2.161000        -1.110932         0.194003
 H        -3.533140         1.205520         0.832168
 H        -1.183882         2.545551         0.152882
 H        -0.075098         2.554106         2.675469
 H        -1.478258         3.565677         2.223522
 H        -2.847099        -0.082147         3.070200
 H        -0.015496         0.189933         2.925450
 H        -0.840692        -1.259113         2.200863
