19
Iteration:   480
 O         0.707272         0.249058         0.213071
 C        -0.571896         0.374250         0.719873
 C        -2.017705        -0.017727         0.014797
 C        -2.419616         1.063440         0.965707
 C        -1.178782         1.856815         0.988824
 C        -1.122464         2.549315         2.264361
 O        -1.836930         1.742436         3.135836
 C        -2.228476         0.525557         2.362900
 C        -0.808289        -0.337076         2.015577
 H         1.335667         0.425809         0.854219
 H        -1.965987         0.235033        -1.084353
 H        -2.375548        -1.039725         0.039869
 H        -3.381680         1.669943         0.900125
 H        -1.022732         2.495830         0.109936
 H        -0.076242         2.545569         2.640403
 H        -1.475700         3.682918         2.375972
 H        -2.984330        -0.070902         3.032720
 H         0.043344        -0.040345         2.682687
 H        -0.752111        -1.436629         1.890484
