19
Iteration:  3942
 O         0.739074         0.254956         0.168100
 C        -0.605350         0.315440         0.652775
 C        -1.939967        -0.002655        -0.060896
 C        -2.511749         1.015660         1.010577
 C        -1.159334         1.847009         0.928032
 C        -0.984657         2.512422         2.336874
 O        -2.009689         1.714851         3.122359
 C        -2.112123         0.478986         2.408199
 C        -0.781070        -0.167014         2.176558
 H         0.694335         0.945217        -0.507135
 H        -2.079604         0.256231        -1.120407
 H        -2.303197        -0.983181        -0.019414
 H        -3.434915         1.566484         1.089103
 H        -1.165324         2.468557         0.139711
 H         0.052215         2.314640         2.652600
 H        -1.370899         3.532477         2.516685
 H        -2.926979        -0.044589         2.943549
 H         0.016867         0.185031         2.922263
 H        -0.914873        -1.253673         2.321987
