19
Iteration:  1363
 O         0.605383         0.104449         0.117185
 C        -0.602195         0.455893         0.710270
 C        -1.849430         0.027251        -0.065118
 C        -2.552835         0.970489         1.027968
 C        -1.152996         1.949300         0.963724
 C        -1.102062         2.509344         2.337204
 O        -1.941047         1.680308         3.143837
 C        -2.149247         0.506163         2.383762
 C        -0.711158        -0.150799         2.090847
 H         1.411313         0.485830         0.709604
 H        -1.790774         0.511769        -1.115404
 H        -2.086169        -0.961424         0.019762
 H        -3.605864         1.414256         0.992900
 H        -0.990719         2.505182         0.015579
 H        -0.107480         2.345566         2.683688
 H        -1.447784         3.640390         2.355173
 H        -2.738830        -0.207062         2.978373
 H         0.159699         0.213923         2.764945
 H        -0.897254        -1.214877         2.042849
