19
Iteration:  1091charge 0 multiplicity 1
 O         0.736339         0.304129         0.128952
 C        -0.597075         0.389420         0.698248
 C        -1.902817        -0.003583        -0.043697
 C        -2.452390         0.995166         0.962662
 C        -1.270712         1.867612         0.959346
 C        -1.076684         2.616295         2.289785
 O        -1.803837         1.649899         3.162691
 C        -2.187642         0.524989         2.433591
 C        -0.916897        -0.317925         2.120116
 H         1.291028        -0.276344         0.622521
 H        -1.859443         0.482533        -1.088229
 H        -2.107731        -1.019432        -0.031197
 H        -3.435857         1.466967         0.741551
 H        -1.103931         2.581058         0.126925
 H         0.023040         2.633619         2.575801
 H        -1.604214         3.578495         2.487207
 H        -3.066354         0.251867         3.065992
 H        -0.097885         0.035732         2.746220
 H        -1.001591        -1.356288         2.055481
