19
Iteration:  3532
 O         0.623895         0.420235         0.080723
 C        -0.579054         0.455840         0.788169
 C        -1.834807        -0.121652         0.112537
 C        -2.551191         0.926862         0.907653
 C        -1.265870         1.820798         0.894420
 C        -1.012125         2.523510         2.240925
 O        -1.871724         1.775753         3.036811
 C        -2.172796         0.488446         2.426368
 C        -0.801018        -0.194742         2.276599
 H         0.872079        -0.452044         0.173542
 H        -1.649736         0.031217        -0.952886
 H        -2.103747        -1.215606         0.214626
 H        -3.541826         1.300516         0.776191
 H        -1.060145         2.381385        -0.066872
 H        -0.004512         2.229919         2.475115
 H        -1.108828         3.660732         2.315815
 H        -2.847359        -0.065820         3.101317
 H        -0.085139         0.088983         3.062958
 H        -0.803772        -1.361359         2.265726
