19
Iteration:  3205
 O         0.693681         0.093582         0.057117
 C        -0.565164         0.426192         0.748639
 C        -1.911221        -0.039414        -0.004109
 C        -2.426550         0.958745         1.046035
 C        -1.192348         1.849858         0.891811
 C        -1.163633         2.589239         2.244812
 O        -1.959873         1.745721         3.165636
 C        -2.133038         0.473089         2.449059
 C        -0.722643        -0.087493         2.151972
 H         1.386033         0.756744         0.539355
 H        -2.149241         0.488683        -0.946793
 H        -2.326044        -1.069413        -0.069489
 H        -3.501739         1.252499         0.894365
 H        -1.153004         2.539485        -0.157955
 H        -0.131604         2.677954         2.746542
 H        -1.711244         3.499072         2.220303
 H        -2.960399        -0.078562         2.979840
 H        -0.122265         0.091235         2.989904
 H        -0.590603        -1.129076         1.910777
