19
Iteration:  1984
 O         0.696460         0.366927         0.080393
 C        -0.606027         0.346096         0.775563
 C        -1.972047        -0.073653         0.040719
 C        -2.476306         1.044521         1.091985
 C        -1.173266         1.796689         0.841592
 C        -1.103584         2.527245         2.185381
 O        -1.954152         1.749984         3.111100
 C        -2.105789         0.473300         2.468306
 C        -0.707729        -0.229095         2.147392
 H         1.323741        -0.179118         0.416627
 H        -1.939408         0.358564        -0.956640
 H        -2.531957        -0.977837         0.178218
 H        -3.421726         1.604931         0.920949
 H        -1.052577         2.349537        -0.147459
 H        -0.098816         2.515402         2.707247
 H        -1.586805         3.519887         2.113660
 H        -2.908471        -0.018736         3.025310
 H         0.020549         0.159251         2.992638
 H        -0.840280        -1.312403         2.081798
