19
Iteration:  1472charge 0 multiplicity 1
 O         0.707185         0.235647         0.080510
 C        -0.589566         0.455529         0.679637
 C        -1.895190        -0.013924        -0.093984
 C        -2.510785         1.013345         0.961157
 C        -1.263066         1.872312         0.914186
 C        -1.033340         2.489994         2.343119
 O        -1.947885         1.725963         3.210343
 C        -2.136693         0.526127         2.455312
 C        -0.794367        -0.237570         2.133336
 H         1.341927         0.122111         0.803614
 H        -2.054763         0.307362        -1.213424
 H        -2.005715        -1.076198        -0.099650
 H        -3.571566         1.379784         0.887969
 H        -1.010644         2.334262        -0.066932
 H         0.010155         2.373275         2.651155
 H        -1.425631         3.571406         2.560930
 H        -2.928729         0.016895         2.992405
 H        -0.024293         0.159434         2.948540
 H        -0.703651        -1.333698         2.175384
