19
Iteration:  4964charge 0 multiplicity 1
 O         0.699106         0.180509         0.253257
 C        -0.556358         0.444326         0.766631
 C        -1.920492        -0.015939        -0.050941
 C        -2.562061         0.917729         1.011149
 C        -1.300485         1.862096         0.827171
 C        -1.184192         2.656487         2.113009
 O        -1.675127         1.679673         3.170447
 C        -2.140572         0.456224         2.426494
 C        -0.832591        -0.194951         2.185333
 H         1.278217         0.780681         0.705026
 H        -1.973896         0.446253        -0.978477
 H        -2.095544        -1.015186        -0.072747
 H        -3.484419         1.463066         0.928557
 H        -1.126416         2.379021        -0.171175
 H        -0.151534         3.072770         2.229161
 H        -1.966782         3.496042         2.237251
 H        -2.874144        -0.126596         3.049864
 H        -0.033309         0.042806         2.868536
 H        -0.884486        -1.314438         2.092654
