19
Iteration:  2636
 O         0.663528         0.277654         0.075280
 C        -0.547592         0.389736         0.690195
 C        -1.785624        -0.004113        -0.024937
 C        -2.507993         0.876378         1.030110
 C        -1.347124         1.846237         0.964008
 C        -1.156325         2.569179         2.210059
 O        -1.803501         1.762578         3.166703
 C        -2.098181         0.516210         2.489192
 C        -0.825999        -0.163282         2.160735
 H         1.148119        -0.260432         0.738186
 H        -1.830625         0.291985        -1.121129
 H        -2.183794        -1.094600        -0.138751
 H        -3.553252         1.027315         0.677713
 H        -1.294735         2.453846         0.001321
 H        -0.075416         2.773030         2.356437
 H        -1.654634         3.538562         2.243695
 H        -2.758554        -0.013455         3.078055
 H        -0.175480         0.104921         2.965661
 H        -1.047323        -1.315260         2.105974
