19
Iteration:  2106
 O         0.677213         0.166562         0.082789
 C        -0.567404         0.491522         0.772048
 C        -1.794902         0.044801         0.069844
 C        -2.594617         0.907124         0.952501
 C        -1.383606         1.884534         0.855525
 C        -1.058300         2.559606         2.225840
 O        -1.853896         1.706268         3.168910
 C        -2.142992         0.498130         2.444048
 C        -0.761357        -0.116783         2.127411
 H         1.157129        -0.704728         0.471319
 H        -1.958323         0.170144        -1.075114
 H        -2.030288        -1.042145         0.333206
 H        -3.586485         1.281149         0.959468
 H        -1.216175         2.632266         0.114210
 H         0.033607         2.479001         2.405195
 H        -1.316839         3.554446         2.231465
 H        -2.851093        -0.138002         2.994616
 H        -0.039267         0.280276         2.936852
 H        -0.626026        -1.192296         2.241377
