19
Iteration:   615charge 0 multiplicity 1
 O         0.695780         0.133514         0.100418
 C        -0.572683         0.438046         0.754514
 C        -1.837375         0.097549         0.045359
 C        -2.523494         1.082096         0.972150
 C        -1.248649         1.918821         0.945923
 C        -1.074858         2.553557         2.228075
 O        -1.881832         1.690700         3.193305
 C        -2.177684         0.457355         2.368167
 C        -0.843689        -0.289709         2.090455
 H         1.342173         0.320070         0.693417
 H        -1.749852         0.336575        -1.024886
 H        -2.287806        -0.902051         0.091933
 H        -3.518888         1.385976         0.907732
 H        -0.929151         2.537460         0.120323
 H        -0.070378         2.566661         2.545149
 H        -1.399179         3.587786         2.395844
 H        -2.861990        -0.124604         2.896900
 H        -0.149643        -0.105730         2.920822
 H        -0.955212        -1.376644         1.905636
