19
Iteration:  1605charge 0 multiplicity 1
 O         0.694675         0.435844         0.136866
 C        -0.530592         0.402609         0.705304
 C        -1.982541        -0.028063         0.040925
 C        -2.471874         1.008695         1.016152
 C        -1.131832         1.793348         0.866367
 C        -1.046683         2.413176         2.275490
 O        -1.891346         1.707367         3.149859
 C        -2.160853         0.503384         2.394548
 C        -0.890984        -0.210532         2.125434
 H         1.355743        -0.279657         0.541099
 H        -2.258381         0.332098        -0.968874
 H        -2.233040        -1.053762         0.031367
 H        -3.411789         1.478966         0.944368
 H        -1.031027         2.466645         0.004066
 H        -0.100714         2.573752         2.758868
 H        -1.401640         3.452559         2.215214
 H        -2.961452        -0.002532         2.886107
 H        -0.026905        -0.044769         2.829715
 H        -1.093744        -1.291661         2.088734
