19
Iteration:  3660
 O         0.700245         0.181718         0.138532
 C        -0.606930         0.476720         0.706735
 C        -1.843609        -0.092847         0.039688
 C        -2.616041         0.970817         1.067106
 C        -1.241799         1.832414         0.899515
 C        -1.049863         2.456828         2.237472
 O        -1.907339         1.794032         3.104112
 C        -2.157006         0.510775         2.428739
 C        -0.756823        -0.164401         2.145512
 H         1.208744         1.128894         0.146087
 H        -1.882246         0.140441        -1.055743
 H        -2.092870        -1.157168         0.201642
 H        -3.613779         1.446874         0.818053
 H        -1.228853         2.467481         0.136040
 H         0.035022         2.484230         2.674535
 H        -1.318207         3.512069         2.151284
 H        -2.965685        -0.101652         2.943621
 H         0.065667         0.248049         2.770150
 H        -0.529505        -1.162640         2.046582
