19
Iteration:  1150
 O         0.753975         0.151248         0.112978
 C        -0.563423         0.411227         0.707420
 C        -1.995286         0.061827        -0.112563
 C        -2.587353         0.981659         0.971058
 C        -1.213180         1.860166         0.938370
 C        -1.074066         2.523260         2.334863
 O        -1.902518         1.719041         3.258482
 C        -2.086703         0.496604         2.366779
 C        -0.822863        -0.190717         2.111923
 H         1.376038         0.419166         0.812348
 H        -1.678779         0.440173        -1.010969
 H        -2.182737        -1.012049        -0.307887
 H        -3.560449         1.537353         0.971746
 H        -1.110954         2.546044         0.067895
 H        -0.042966         2.649167         2.617479
 H        -1.511197         3.668771         2.341620
 H        -2.797213        -0.076059         2.924479
 H        -0.039448        -0.001421         2.844533
 H        -0.859711        -1.322289         1.991910
