19
Iteration:  4432charge 0 multiplicity 1
 O         0.687212         0.079540         0.118813
 C        -0.540177         0.398818         0.741153
 C        -1.846277         0.042203        -0.027118
 C        -2.494844         1.028152         0.955739
 C        -1.206409         1.847278         0.989445
 C        -1.260141         2.681847         2.342551
 O        -1.854272         1.629570         3.214048
 C        -2.147866         0.579233         2.386088
 C        -0.726016        -0.259457         2.084807
 H         0.883347         0.786002        -0.620460
 H        -1.766290         0.503834        -1.039605
 H        -2.163657        -0.996555        -0.103796
 H        -3.530137         1.425261         0.827894
 H        -1.173679         2.656949         0.165364
 H        -0.142587         2.946145         2.531662
 H        -1.900328         3.474744         2.491932
 H        -2.952873        -0.054008         2.900891
 H         0.150248        -0.048817         2.755290
 H        -0.961081        -1.360221         2.111884
