19
Iteration:  4879charge 0 multiplicity 1
 O         0.621915         0.178067         0.030585
 C        -0.544367         0.418585         0.728313
 C        -1.848479        -0.035650         0.036421
 C        -2.480333         0.973102         0.954555
 C        -1.216401         1.894103         0.915405
 C        -1.081106         2.518774         2.317282
 O        -1.972179         1.772930         3.129224
 C        -2.130712         0.530757         2.418029
 C        -0.761307        -0.217133         2.183026
 H         1.371771         0.590088         0.562727
 H        -1.939773         0.022526        -1.095524
 H        -2.244075        -1.104350         0.217970
 H        -3.461700         1.409373         0.890336
 H        -1.181834         2.578537         0.086331
 H        -0.022761         2.470494         2.640901
 H        -1.466397         3.484316         2.505658
 H        -2.903539        -0.004064         2.951020
 H         0.027120         0.187919         2.775106
 H        -0.722746        -1.334399         2.275793
