19
Iteration:  2109
 O         0.674493         0.160926         0.101984
 C        -0.557206         0.492276         0.776570
 C        -1.829618         0.018232         0.059193
 C        -2.596509         0.930106         0.961561
 C        -1.380887         1.903402         0.845086
 C        -1.041610         2.519439         2.228124
 O        -1.860746         1.711326         3.160047
 C        -2.142723         0.488156         2.423474
 C        -0.729399        -0.103778         2.143320
 H         1.097214        -0.561884         0.459630
 H        -1.896863         0.170500        -0.992779
 H        -1.976211        -0.951074         0.261887
 H        -3.617460         1.232485         1.034210
 H        -1.296324         2.629859         0.081172
 H         0.013043         2.470960         2.371567
 H        -1.378344         3.642467         2.306637
 H        -2.928177        -0.062641         2.974687
 H        -0.008239         0.217935         2.835278
 H        -0.591103        -1.207898         2.234159
