19
Iteration:   372charge 0 multiplicity 1
 O         0.591941         0.266767         0.171699
 C        -0.532905         0.389683         0.854505
 C        -1.852541         0.007191         0.018777
 C        -2.508095         1.054783         0.890184
 C        -1.204808         1.891269         0.902244
 C        -1.079070         2.550460         2.298148
 O        -1.792386         1.643866         3.123599
 C        -2.188507         0.572016         2.367511
 C        -0.904097        -0.278523         2.109495
 H         1.287937        -0.051611         0.711406
 H        -1.649436         0.601098        -0.968083
 H        -2.202605        -1.041093        -0.130796
 H        -3.538391         1.451227         0.685178
 H        -0.836067         2.422863         0.001583
 H         0.022000         2.488187         2.655485
 H        -1.445540         3.516841         2.288024
 H        -2.914481        -0.091928         3.008258
 H        -0.146524        -0.266559         2.944759
 H        -1.028550        -1.331203         1.800440
