19
Iteration:  1783charge 0 multiplicity 1
 O         0.703214         0.256282        -0.010134
 C        -0.553437         0.440276         0.790763
 C        -1.854432        -0.049333        -0.006750
 C        -2.482704         0.973743         0.974644
 C        -1.260975         1.881933         0.947186
 C        -1.146285         2.547129         2.250824
 O        -1.801330         1.748728         3.227801
 C        -2.194868         0.504896         2.371679
 C        -0.873661        -0.220239         2.186774
 H         1.396027        -0.372353         0.518081
 H        -1.928512         0.310018        -1.050261
 H        -2.050785        -1.152454         0.134034
 H        -3.565930         1.287708         0.801657
 H        -1.218031         2.508344         0.042365
 H        -0.010564         2.572051         2.508122
 H        -1.648065         3.572372         2.303034
 H        -2.984968        -0.036721         3.011821
 H        -0.204424         0.160045         2.915220
 H        -0.712735        -1.356710         2.159595
