19
Iteration:   103charge 0 multiplicity 1
 O         0.691846         0.190308         0.171159
 C        -0.576918         0.339725         0.722180
 C        -1.839328         0.166021        -0.044970
 C        -2.474695         1.062275         1.044386
 C        -1.137637         1.816586         1.025627
 C        -1.109998         2.547291         2.302537
 O        -2.005775         1.762538         3.119937
 C        -2.185164         0.468409         2.367392
 C        -0.748943        -0.288917         2.089629
 H         0.750870        -0.604487        -0.536553
 H        -2.023635         0.694855        -1.078768
 H        -2.129038        -0.899214        -0.007526
 H        -3.483399         1.547060         1.171714
 H        -0.959070         2.403390         0.088581
 H        -0.072736         2.559597         2.796031
 H        -1.362553         3.517888         2.149122
 H        -2.971671        -0.137084         2.913825
 H        -0.006120         0.263170         2.704453
 H        -0.744456        -1.417886         2.076588
