19
Iteration:   145charge 0 multiplicity 1
 O         0.756538         0.108251         0.172740
 C        -0.526438         0.381569         0.678065
 C        -1.817899         0.007255        -0.029441
 C        -2.514271         1.085085         0.942196
 C        -1.267979         1.884810         0.978112
 C        -1.052462         2.461667         2.329293
 O        -1.894096         1.719895         3.264493
 C        -2.274363         0.548252         2.366634
 C        -0.829088        -0.178411         2.096746
 H         0.777380         0.376502        -0.827370
 H        -1.829979         0.356875        -1.118001
 H        -2.107201        -0.976571         0.087317
 H        -3.420925         1.551022         0.547564
 H        -1.158496         2.617521         0.159029
 H        -0.001335         2.325461         2.677795
 H        -1.379780         3.523287         2.476137
 H        -3.186372         0.062649         2.847242
 H        -0.165552         0.375352         2.739998
 H        -0.828953        -1.244845         2.097990
