19
Iteration:  3393charge 0 multiplicity 1
 O         0.615376         0.193643         0.093429
 C        -0.525640         0.389070         0.727869
 C        -1.761798        -0.040291        -0.008558
 C        -2.544662         0.830927         1.013521
 C        -1.340758         1.838213         0.904101
 C        -1.060488         2.540964         2.272518
 O        -1.904211         1.861119         3.116765
 C        -2.129579         0.524346         2.457483
 C        -0.798806        -0.166516         2.154776
 H         1.346379         0.875228         0.464935
 H        -1.839466         0.441765        -0.936747
 H        -2.097331        -1.063497        -0.165887
 H        -3.568057         1.106290         0.959842
 H        -1.226310         2.369741        -0.186665
 H        -0.043556         2.299959         2.650078
 H        -1.253677         3.587219         2.387764
 H        -2.841139         0.000505         3.076408
 H        -0.065460         0.217233         2.819981
 H        -0.750419        -1.205118         2.314063
