19
Iteration:  2723
 O         0.700055         0.276665         0.159820
 C        -0.586360         0.500391         0.714685
 C        -1.827492        -0.016229        -0.035408
 C        -2.535053         0.870440         1.107674
 C        -1.303287         1.855409         0.830801
 C        -1.113301         2.567275         2.230336
 O        -1.893034         1.767481         3.116145
 C        -2.091402         0.536681         2.492712
 C        -0.753584        -0.242936         2.178595
 H         0.825006        -0.675209        -0.274528
 H        -1.904773         0.318137        -1.082670
 H        -1.992185        -1.138304        -0.080567
 H        -3.605103         0.957930         1.027598
 H        -1.145807         2.488164        -0.082396
 H        -0.065414         2.584960         2.500495
 H        -1.563320         3.638854         2.332426
 H        -2.829154         0.091078         3.057227
 H        -0.064747         0.099230         2.908341
 H        -0.934182        -1.405872         2.061431
