19
Iteration:  2120
 O         0.655429         0.214133         0.143876
 C        -0.581301         0.449775         0.709502
 C        -1.918917        -0.104969         0.031425
 C        -2.552294         1.000948         1.043825
 C        -1.313479         1.942921         0.857574
 C        -1.063343         2.471032         2.235538
 O        -1.879699         1.727479         3.113887
 C        -2.113109         0.501658         2.400615
 C        -0.665383        -0.096904         2.178753
 H         1.022504        -0.411025         0.730508
 H        -1.825585         0.310362        -0.941896
 H        -2.141880        -1.088416        -0.014842
 H        -3.576786         1.268563         0.857359
 H        -1.385760         2.452164        -0.061214
 H        -0.039367         2.367026         2.510951
 H        -1.358537         3.562705         2.493036
 H        -2.862725        -0.081288         2.971247
 H         0.037153         0.282900         2.854451
 H        -0.683657        -1.189761         1.997394
