19
Iteration:  3250charge 0 multiplicity 1
 O         0.669604         0.348826         0.055734
 C        -0.564532         0.445555         0.698969
 C        -1.845893        -0.109861         0.031889
 C        -2.515305         0.868451         0.946700
 C        -1.203788         1.825879         0.827422
 C        -1.040165         2.518525         2.225062
 O        -1.878119         1.806754         3.217149
 C        -2.230720         0.470955         2.496618
 C        -0.866772        -0.188338         2.203010
 H         1.539625         0.360080         0.671422
 H        -2.037973         0.193651        -1.001659
 H        -2.064424        -1.224445         0.142993
 H        -3.505929         1.342580         0.735824
 H        -1.092492         2.612496        -0.123359
 H         0.076924         2.331899         2.463796
 H        -1.244988         3.548742         2.191898
 H        -3.040137        -0.068792         3.098720
 H        -0.160534         0.212109         2.921402
 H        -0.827572        -1.259919         2.384383
