19
Iteration:   193
 O         0.785213         0.236445         0.248770
 C        -0.569782         0.361115         0.728214
 C        -1.896957         0.050735        -0.075259
 C        -2.618786         0.995325         1.011906
 C        -1.216399         1.794072         0.920167
 C        -0.990745         2.569269         2.280494
 O        -1.848537         1.785128         3.152321
 C        -2.224416         0.542021         2.439497
 C        -0.902798        -0.375706         2.065719
 H         1.181364         1.159080         0.208204
 H        -1.734424         0.496836        -1.046894
 H        -2.226317        -1.051305        -0.124226
 H        -3.551250         1.492763         0.684996
 H        -1.155787         2.341195        -0.047328
 H         0.091460         2.487384         2.622239
 H        -1.328246         3.528334         2.231915
 H        -2.858401         0.056708         3.146556
 H        -0.112048        -0.226661         2.818980
 H        -1.148843        -1.367924         1.658143
