19
Iteration:  2902charge 0 multiplicity 1
 O         0.650392         0.134012         0.126755
 C        -0.591665         0.393076         0.700116
 C        -1.882830         0.002904        -0.100178
 C        -2.516608         0.948356         1.046027
 C        -1.251021         1.828896         0.922213
 C        -1.180940         2.606214         2.232182
 O        -1.910029         1.747547         3.172002
 C        -2.030890         0.540995         2.447084
 C        -0.686263        -0.185786         2.085520
 H         1.272467         0.132763         0.990785
 H        -2.045930         0.550418        -1.031229
 H        -2.126944        -1.051166        -0.122733
 H        -3.494216         1.443190         1.120773
 H        -1.087595         2.510351         0.150722
 H        -0.210867         2.822657         2.674738
 H        -1.905737         3.528022         2.248629
 H        -2.838670        -0.015598         3.069021
 H         0.037342         0.138790         2.906793
 H        -0.658702        -1.277795         2.219595
