19
Iteration:   665charge 0 multiplicity 1
 O         0.717734         0.277737         0.178250
 C        -0.573990         0.411347         0.738551
 C        -1.822600         0.055204        -0.008386
 C        -2.589950         1.012342         0.974438
 C        -1.306989         1.829386         0.912728
 C        -1.060096         2.484537         2.266256
 O        -1.768679         1.703959         3.158089
 C        -2.164696         0.586890         2.412746
 C        -0.920820        -0.283026         2.075387
 H         1.472865        -0.176005         0.740626
 H        -1.875587         0.509508        -1.055390
 H        -2.040388        -0.983839        -0.190079
 H        -3.588830         1.423276         0.698967
 H        -1.257984         2.488241         0.035909
 H         0.035029         2.364989         2.661724
 H        -1.263959         3.541346         2.464581
 H        -2.931860         0.030057         3.074947
 H        -0.152087        -0.226608         2.880429
 H        -1.206705        -1.326351         1.857002
