19
Iteration:  4419charge 0 multiplicity 1
 O         0.753887         0.121083         0.116102
 C        -0.526280         0.330096         0.712451
 C        -1.938306         0.066691        -0.080417
 C        -2.468085         1.023893         0.976064
 C        -1.174566         1.916748         0.953292
 C        -1.241885         2.628849         2.311825
 O        -1.850926         1.653545         3.240204
 C        -2.098416         0.442860         2.424434
 C        -0.831772        -0.198313         2.134329
 H         0.789738         0.845012        -0.551169
 H        -2.038650         0.515747        -1.078620
 H        -2.396405        -0.985889        -0.007311
 H        -3.402602         1.504061         0.834011
 H        -0.934490         2.474557        -0.033265
 H        -0.394520         3.031240         2.942746
 H        -1.837254         3.502762         2.052159
 H        -2.841603        -0.159160         2.944176
 H        -0.095107         0.160491         2.955069
 H        -0.831503        -1.317482         2.075928
