19
Iteration:  1168
 O         0.655888         0.132968         0.101510
 C        -0.550978         0.449315         0.655546
 C        -1.791005         0.096355         0.000213
 C        -2.483117         1.041831         1.033609
 C        -1.223016         1.864593         0.926134
 C        -1.086765         2.462050         2.296469
 O        -1.938784         1.691072         3.159629
 C        -2.227194         0.486172         2.462271
 C        -0.778207        -0.199309         2.068042
 H         1.385904         0.575191         0.533921
 H        -2.164401         0.499967        -1.039495
 H        -2.156216        -0.901746         0.064270
 H        -3.503203         1.432807         0.722399
 H        -1.158594         2.665115         0.087841
 H        -0.080553         2.395137         2.825998
 H        -1.292439         3.442287         2.334721
 H        -2.967147        -0.014234         3.136105
 H         0.039693         0.058989         2.748329
 H        -0.791926        -1.249531         2.107463
