19
Iteration:   104charge 0 multiplicity 1
 O         0.686706         0.176818         0.175560
 C        -0.579589         0.353747         0.721222
 C        -1.834635         0.170740        -0.043843
 C        -2.476292         1.054318         1.046517
 C        -1.143267         1.822325         1.035344
 C        -1.107763         2.545745         2.309942
 O        -2.004442         1.763623         3.107143
 C        -2.188196         0.464325         2.367449
 C        -0.741200        -0.283159         2.081294
 H         0.720580        -0.581127        -0.510961
 H        -2.008904         0.677878        -1.082753
 H        -2.134033        -0.931228         0.009354
 H        -3.510623         1.547743         1.136565
 H        -0.975425         2.419799         0.090233
 H        -0.055063         2.572429         2.783991
 H        -1.344828         3.536182         2.164571
 H        -2.960348        -0.135044         2.911912
 H         0.025630         0.254089         2.721232
 H        -0.719100        -1.434949         2.053768
