19
Iteration:  2987
 O         0.764124         0.374478         0.187045
 C        -0.598325         0.369686         0.728100
 C        -1.896902        -0.033980         0.012870
 C        -2.561539         0.920601         1.007554
 C        -1.296466         1.831399         0.840417
 C        -1.051886         2.510616         2.226892
 O        -1.877634         1.749142         3.081268
 C        -2.149582         0.515893         2.523153
 C        -0.768671        -0.204832         2.180026
 H         0.907934        -0.400597        -0.255271
 H        -1.923581         0.468446        -1.032448
 H        -2.208984        -1.130929         0.058734
 H        -3.521794         1.368886         0.878117
 H        -1.297631         2.463223        -0.118237
 H         0.063846         2.539632         2.395288
 H        -1.381176         3.585006         2.403778
 H        -2.903679        -0.011513         3.062173
 H        -0.039783         0.129484         2.916502
 H        -0.891066        -1.387975         2.184753
