19
Iteration:   973charge 0 multiplicity 1
 O         0.684880         0.289665         0.215575
 C        -0.581697         0.415579         0.631336
 C        -1.887195        -0.024723        -0.090597
 C        -2.474192         0.997226         0.981753
 C        -1.208534         1.858575         0.851711
 C        -1.037768         2.532751         2.333416
 O        -1.838189         1.717929         3.200016
 C        -2.199047         0.512636         2.496663
 C        -0.853876        -0.233633         2.113121
 H         0.912992        -0.577983         0.207093
 H        -1.963651         0.526925        -1.099081
 H        -2.098398        -1.110681        -0.173753
 H        -3.422426         1.577162         0.890626
 H        -1.204652         2.498711        -0.090266
 H        -0.036987         2.520800         2.718898
 H        -1.578007         3.543294         2.429499
 H        -3.027946         0.033216         2.996910
 H        -0.022241        -0.024558         2.822751
 H        -1.088782        -1.297347         1.855285
