19
Iteration:  1520
 O         0.667683         0.160639         0.005512
 C        -0.539015         0.304016         0.687825
 C        -1.872466         0.003673        -0.041529
 C        -2.480639         1.040184         0.935983
 C        -1.132387         1.904010         0.963851
 C        -1.137559         2.605241         2.337175
 O        -1.941217         1.663754         3.243380
 C        -2.153967         0.518697         2.444722
 C        -0.805244        -0.169837         2.135922
 H         1.341775         0.581114         0.515404
 H        -1.767492         0.338806        -1.034668
 H        -2.239303        -1.053927        -0.007716
 H        -3.494851         1.462940         0.820125
 H        -1.158615         2.654094         0.169367
 H        -0.146796         2.705931         2.812840
 H        -1.724681         3.613874         2.295291
 H        -2.875191        -0.168369         2.963280
 H         0.037444        -0.015125         2.800560
 H        -1.036260        -1.280258         2.123314
