19
Iteration:     9
 O         0.710555         0.211541         0.182473
 C        -0.593363         0.316524         0.666080
 C        -1.853362         0.082125        -0.080175
 C        -2.534453         1.029227         1.027978
 C        -1.206830         1.821943         0.909499
 C        -0.984135         2.528441         2.326210
 O        -1.898020         1.674600         3.197388
 C        -2.176096         0.522670         2.428858
 C        -0.892053        -0.213889         2.053423
 H         1.272967         0.224707         0.912268
 H        -1.796965         0.629964        -0.948561
 H        -2.362967        -0.899344        -0.226686
 H        -3.427762         1.666002         0.687189
 H        -1.119747         2.605752         0.106538
 H        -0.020302         2.508151         2.758958
 H        -1.401169         3.652849         2.261169
 H        -3.053233         0.023154         2.831210
 H        -0.127483         0.127509         2.724078
 H        -0.975299        -1.262477         1.846546
