19
Iteration:   556
 O         0.618565         0.216413         0.069298
 C        -0.526543         0.435003         0.722546
 C        -1.966312         0.032737         0.016025
 C        -2.379838         1.093183         1.042497
 C        -1.141855         1.867593         0.903870
 C        -1.084796         2.466598         2.304693
 O        -1.979514         1.677547         3.065471
 C        -2.167048         0.526990         2.395753
 C        -0.742877        -0.256309         2.203772
 H         1.430550         0.175063         0.785761
 H        -1.971705         0.506047        -1.009831
 H        -2.474943        -0.923514         0.166082
 H        -3.311956         1.739355         0.850279
 H        -1.077247         2.296766        -0.114768
 H        -0.168712         2.369249         2.809724
 H        -1.645885         3.530355         2.537272
 H        -3.122889        -0.073724         2.779778
 H         0.067400        -0.054439         2.965609
 H        -0.735695        -1.351444         2.007415
