19
Iteration:  1665charge 0 multiplicity 1
 O         0.767274         0.207799         0.121400
 C        -0.521842         0.438329         0.738164
 C        -1.876861         0.051316         0.005550
 C        -2.506449         1.041466         1.033799
 C        -1.192839         1.835546         0.905957
 C        -1.098214         2.578597         2.254241
 O        -1.961792         1.699531         3.210171
 C        -2.164940         0.446724         2.480037
 C        -0.801255        -0.225940         2.091334
 H         0.606849        -0.227806        -0.791901
 H        -2.006133         0.456464        -1.003518
 H        -2.159823        -1.038314        -0.031633
 H        -3.518530         1.558682         0.928140
 H        -1.208047         2.403542        -0.037164
 H        -0.052891         2.757238         2.632862
 H        -1.704476         3.507380         2.084136
 H        -2.985392        -0.123810         2.984254
 H        -0.016982         0.065077         2.811883
 H        -0.782777        -1.359870         2.030530
