19
Iteration:  3385charge 0 multiplicity 1
 O         0.701174         0.167729         0.035391
 C        -0.532880         0.428250         0.739780
 C        -1.765874        -0.068098        -0.033639
 C        -2.513334         0.937750         1.083314
 C        -1.354853         1.799176         0.850471
 C        -1.095658         2.508262         2.230793
 O        -1.947414         1.817722         3.136346
 C        -2.146716         0.525290         2.521544
 C        -0.801260        -0.138470         2.166457
 H         1.426831         0.823392         0.434996
 H        -1.742664         0.442812        -1.068828
 H        -2.118725        -1.153897        -0.149118
 H        -3.504871         1.363154         0.888947
 H        -1.502513         2.452934         0.060574
 H        -0.025070         2.169720         2.435153
 H        -1.124168         3.542571         2.430925
 H        -2.823547         0.058840         3.188280
 H        -0.196900         0.364617         2.991686
 H        -0.821502        -1.233632         2.340580
