19
Iteration:  4950charge 0 multiplicity 1
 O         0.716217         0.157758         0.314498
 C        -0.615052         0.454935         0.728974
 C        -1.850678         0.023206         0.041697
 C        -2.534547         0.988269         1.038719
 C        -1.307857         1.829998         0.861826
 C        -1.178158         2.580504         2.145068
 O        -1.777113         1.723792         3.103264
 C        -2.099202         0.497320         2.470602
 C        -0.777525        -0.255416         2.054321
 H         1.158441         1.045216        -0.021843
 H        -2.022808         0.236712        -1.002450
 H        -2.133300        -1.059429         0.104094
 H        -3.590603         1.299004         0.849242
 H        -1.415277         2.432141        -0.106795
 H        -0.188839         2.688094         2.514196
 H        -1.642361         3.610185         2.032694
 H        -2.924209         0.019335         3.110018
 H        -0.010354         0.019915         2.847560
 H        -0.789313        -1.320655         1.913159
