19
Iteration:  1156
 O         0.748356         0.123615         0.098986
 C        -0.564988         0.437738         0.731436
 C        -1.946151         0.055449        -0.080462
 C        -2.564896         1.011407         0.970548
 C        -1.239510         1.829071         0.969758
 C        -1.075555         2.498068         2.328234
 O        -1.924324         1.708212         3.219973
 C        -2.138954         0.539622         2.450863
 C        -0.783055        -0.171361         2.052782
 H         1.477281         0.535617         0.765051
 H        -1.782812         0.617262        -1.125160
 H        -2.219069        -0.995036        -0.187809
 H        -3.511082         1.577191         0.859252
 H        -1.114237         2.447813         0.039309
 H         0.038258         2.535637         2.575785
 H        -1.499266         3.409725         2.322571
 H        -2.832519        -0.210865         2.912760
 H        -0.004240         0.090155         2.795539
 H        -0.879089        -1.215050         1.874337
