19
Iteration:  2247
 O         0.548264         0.229745        -0.017900
 C        -0.541065         0.393818         0.750470
 C        -1.732613        -0.005260         0.044888
 C        -2.502640         0.926441         1.004596
 C        -1.255028         1.864113         0.943239
 C        -1.094041         2.557654         2.250382
 O        -1.940758         1.766169         3.132407
 C        -2.108171         0.513502         2.429587
 C        -0.803103        -0.185892         2.169506
 H         1.347259         0.280636         0.610238
 H        -1.840508         0.143577        -1.095540
 H        -2.087089        -1.108256         0.237411
 H        -3.516640         1.212002         0.977970
 H        -1.061407         2.381858         0.050242
 H        -0.026912         2.522212         2.770352
 H        -1.357201         3.625539         2.223880
 H        -2.793444         0.047831         3.120450
 H         0.016951        -0.047863         2.978000
 H        -0.864963        -1.253659         2.184099
