19
Iteration:   498
 O         0.687507         0.218010         0.233518
 C        -0.581221         0.441631         0.771601
 C        -1.865626         0.125629        -0.035512
 C        -2.632726         1.021314         1.023127
 C        -1.245102         1.878635         0.872382
 C        -0.996639         2.534543         2.216121
 O        -1.829069         1.666507         3.113373
 C        -2.130807         0.473845         2.413819
 C        -0.841933        -0.296848         2.105876
 H         1.200371         0.263590         0.987442
 H        -1.915284         0.493832        -1.004134
 H        -2.210681        -0.961104        -0.150635
 H        -3.637865         1.403200         0.836105
 H        -1.097721         2.376051        -0.089408
 H         0.037832         2.692389         2.522190
 H        -1.477677         3.521119         2.180032
 H        -2.880478        -0.071819         2.910052
 H        -0.140091        -0.121964         2.919174
 H        -0.978415        -1.386041         1.941712
