19
Iteration:  4170
 O         0.740726         0.212330         0.273921
 C        -0.600528         0.407225         0.660328
 C        -1.919652        -0.022319        -0.044816
 C        -2.509521         0.998676         0.918909
 C        -1.198031         1.822390         0.855497
 C        -1.138332         2.550449         2.314183
 O        -1.844450         1.713487         3.250724
 C        -2.113838         0.517735         2.475445
 C        -0.856383        -0.224171         2.043165
 H         0.982121         0.870533        -0.486334
 H        -1.914939         0.305522        -1.134458
 H        -2.354819        -1.041302        -0.020027
 H        -3.328958         1.639923         0.940645
 H        -1.072152         2.543322         0.060430
 H        -0.123000         2.768271         2.679290
 H        -1.803978         3.502554         2.269832
 H        -2.728692        -0.170309         3.032605
 H         0.008824        -0.062899         2.734727
 H        -0.861758        -1.267595         1.878554
