19
Iteration:  2730
 O         0.687285         0.303583         0.163046
 C        -0.604428         0.431163         0.735539
 C        -1.836469        -0.057160        -0.033991
 C        -2.493929         0.878442         1.029019
 C        -1.275795         1.882466         0.836912
 C        -1.129548         2.641574         2.215656
 O        -1.908468         1.741494         3.140391
 C        -2.075954         0.511378         2.507786
 C        -0.750412        -0.245501         2.174070
 H         0.714820        -0.621485        -0.276406
 H        -1.868149         0.327850        -1.035283
 H        -2.254238        -1.080071         0.008916
 H        -3.570977         1.364539         0.981949
 H        -1.180250         2.397605        -0.078080
 H        -0.084250         2.740681         2.579580
 H        -1.550692         3.734091         2.251680
 H        -2.787005        -0.112378         3.209115
 H         0.181271        -0.152006         2.853239
 H        -0.956191        -1.313021         2.084846
