19
Iteration:  1337charge 0 multiplicity 1
 O         0.694882         0.140746        -0.010802
 C        -0.532146         0.436388         0.695215
 C        -1.794047         0.045216        -0.020635
 C        -2.559775         1.001975         0.986637
 C        -1.275002         1.868142         0.941410
 C        -1.018408         2.525227         2.333991
 O        -1.982466         1.702338         3.241746
 C        -2.231486         0.539512         2.419095
 C        -0.770458        -0.174906         2.136355
 H         1.480480         0.243442         0.655436
 H        -1.716906         0.433342        -0.966052
 H        -2.141744        -1.064976         0.015802
 H        -3.467601         1.530680         0.770755
 H        -1.330977         2.341272        -0.017971
 H        -0.010751         2.169887         2.623538
 H        -1.142777         3.629136         2.400913
 H        -2.993596        -0.124426         2.921324
 H        -0.069783         0.287508         2.829552
 H        -0.731780        -1.327325         2.174316
