19
Iteration:  4823
 O         0.665797         0.298868         0.291029
 C        -0.627438         0.395213         0.814146
 C        -1.791545         0.005764        -0.034796
 C        -2.589000         1.036157         0.989548
 C        -1.258549         1.841589         0.853310
 C        -1.145921         2.682121         2.191510
 O        -1.707520         1.636638         3.166418
 C        -2.119355         0.490324         2.406105
 C        -0.849573        -0.301374         2.107079
 H         0.865374        -0.466709        -0.416798
 H        -1.700948         0.645329        -0.940699
 H        -2.237907        -1.014445        -0.096424
 H        -3.609020         1.437343         0.938578
 H        -1.135935         2.317166        -0.174297
 H        -0.078906         2.931998         2.346586
 H        -1.733500         3.502073         2.409054
 H        -2.919715        -0.113265         2.970868
 H        -0.043847        -0.100945         2.802622
 H        -1.049773        -1.393660         1.940878
