19
Iteration:  2573charge 0 multiplicity 1
 O         0.605111         0.269889        -0.010638
 C        -0.569082         0.392784         0.718345
 C        -1.788550        -0.085430         0.034494
 C        -2.510560         0.919280         0.947419
 C        -1.203048         1.824094         0.926849
 C        -1.110867         2.557157         2.262832
 O        -1.903524         1.808187         3.206396
 C        -2.191321         0.508607         2.470102
 C        -0.762751        -0.227138         2.162296
 H         1.287044         0.838146         0.475237
 H        -1.923940         0.304603        -1.028069
 H        -1.944802        -1.138430         0.127702
 H        -3.558729         1.135716         0.833950
 H        -0.905629         2.589153         0.096850
 H        -0.016727         2.632042         2.633226
 H        -1.482244         3.537699         2.161094
 H        -2.928861        -0.039421         3.105003
 H        -0.257517        -0.002536         3.098302
 H        -0.760072        -1.271702         2.102134
