19
Iteration:  1190charge 0 multiplicity 1
 O         0.624582         0.203631        -0.026069
 C        -0.577119         0.460124         0.836767
 C        -1.843221        -0.053519        -0.010365
 C        -2.510547         1.023838         0.913080
 C        -1.218102         1.868468         0.977861
 C        -0.987295         2.534744         2.374540
 O        -1.961704         1.693153         3.133961
 C        -2.162182         0.514513         2.382232
 C        -0.793881        -0.187464         2.171360
 H         1.483853         0.542357         0.373314
 H        -1.819094         0.367326        -1.115719
 H        -2.300088        -1.022850        -0.003043
 H        -3.573675         1.447563         0.867272
 H        -0.925797         2.517925         0.052419
 H         0.069751         2.438852         2.832488
 H        -1.262043         3.482645         2.532046
 H        -2.887332        -0.199316         2.836276
 H        -0.208570        -0.126610         3.093247
 H        -0.976353        -1.218358         2.064552
