19
Iteration:  4857charge 0 multiplicity 1
 O         0.768993         0.073410         0.193250
 C        -0.556427         0.424562         0.669515
 C        -1.890516         0.006501         0.009695
 C        -2.556621         1.008057         1.055079
 C        -1.219439         1.828312         0.889357
 C        -1.162634         2.627746         2.232352
 O        -1.875561         1.704002         3.238787
 C        -2.121971         0.535930         2.412513
 C        -0.814076        -0.165377         2.084183
 H         1.150307         0.919775        -0.170316
 H        -1.992630         0.427272        -1.054682
 H        -2.237209        -1.074321        -0.200125
 H        -3.547199         1.350680         0.814918
 H        -1.186384         2.384263        -0.045957
 H        -0.152639         2.779324         2.615095
 H        -1.719397         3.517268         2.245578
 H        -2.733834        -0.121142         3.028189
 H         0.010031        -0.045823         2.744780
 H        -0.917240        -1.264413         1.898911
