19
Iteration:  1006charge 0 multiplicity 1
 O         0.697320         0.344968         0.119572
 C        -0.558067         0.380758         0.743942
 C        -1.904269         0.014847        -0.010737
 C        -2.470553         1.080785         1.006975
 C        -1.199614         1.820937         0.877065
 C        -1.039685         2.535627         2.369964
 O        -1.877897         1.693581         3.075282
 C        -2.184344         0.445802         2.410381
 C        -0.862278        -0.260023         2.204381
 H         1.022921        -0.558959        -0.251026
 H        -1.913205         0.374900        -1.082832
 H        -2.211931        -1.034921        -0.020526
 H        -3.410371         1.721699         1.064104
 H        -1.175305         2.452299        -0.084120
 H        -0.025116         2.673007         2.571843
 H        -1.442933         3.607049         2.289754
 H        -3.021416        -0.006146         2.914870
 H        -0.211825        -0.169312         3.097734
 H        -0.988113        -1.388605         2.171068
