19
Iteration:  2899charge 0 multiplicity 1
 O         0.658008         0.133569         0.124307
 C        -0.584775         0.378818         0.690167
 C        -1.901582         0.006248        -0.111021
 C        -2.496847         0.955130         1.044617
 C        -1.237807         1.826617         0.936252
 C        -1.188512         2.608129         2.235874
 O        -1.918919         1.770009         3.193020
 C        -2.048479         0.518547         2.449087
 C        -0.697456        -0.185641         2.101539
 H         1.235312         0.184524         0.863919
 H        -1.997056         0.587476        -1.087511
 H        -2.089590        -1.081997        -0.087671
 H        -3.463475         1.380386         1.111014
 H        -1.102954         2.535375         0.064963
 H        -0.213627         2.907331         2.578746
 H        -1.891076         3.498594         2.247241
 H        -2.722439        -0.003447         3.036357
 H         0.021455         0.100619         2.833616
 H        -0.633574        -1.357312         2.210170
