19
Iteration:  3165charge 0 multiplicity 1
 O         0.614839         0.179954         0.105820
 C        -0.525683         0.470725         0.761344
 C        -1.855248        -0.040333         0.041455
 C        -2.489437         0.897796         0.950504
 C        -1.249912         1.910521         0.864004
 C        -1.184141         2.649304         2.236385
 O        -1.821100         1.680095         3.167011
 C        -2.148921         0.516717         2.410233
 C        -0.768928        -0.206038         2.186769
 H         1.352586         0.133673         0.617378
 H        -1.720303         0.294915        -0.989626
 H        -2.102606        -1.150862        -0.093101
 H        -3.449325         1.450263         0.912438
 H        -1.225552         2.517983         0.052760
 H        -0.183019         2.849392         2.619870
 H        -1.815696         3.610947         2.190907
 H        -2.949655        -0.037049         2.985185
 H         0.058286         0.020351         2.961318
 H        -0.893101        -1.329614         1.978594
