19
Iteration:  3795
 O         0.764366         0.219739         0.146002
 C        -0.534377         0.328645         0.679089
 C        -1.925326        -0.017859        -0.027732
 C        -2.536202         0.913644         1.036118
 C        -1.264023         1.796334         0.914452
 C        -0.976637         2.554983         2.282911
 O        -2.015787         1.815142         3.200309
 C        -2.153147         0.560900         2.430179
 C        -0.797010        -0.234171         2.087431
 H         0.971061         1.120862        -0.368399
 H        -1.806077         0.465108        -0.993453
 H        -2.259720        -1.119847         0.114785
 H        -3.479209         1.380551         0.803133
 H        -1.153796         2.541751         0.023496
 H         0.095949         2.479037         2.754486
 H        -1.210093         3.587869         2.320002
 H        -2.879755        -0.067992         2.916042
 H        -0.077765         0.069299         2.820441
 H        -0.835709        -1.342093         2.253718
