19
Iteration:  3486
 O         0.815335         0.267283         0.132266
 C        -0.536186         0.374505         0.788289
 C        -1.969843        -0.037146        -0.009333
 C        -2.593849         0.883279         1.031787
 C        -1.308689         1.840624         0.841040
 C        -1.106683         2.637679         2.214781
 O        -1.908274         1.782340         3.108815
 C        -2.104090         0.492690         2.468029
 C        -0.741785        -0.180261         2.154242
 H         1.217772        -0.515966         0.335839
 H        -2.001495         0.387959        -1.093640
 H        -2.369288        -1.112456        -0.009813
 H        -3.618711         1.349408         1.010310
 H        -1.201951         2.390217        -0.015828
 H        -0.077791         2.722440         2.614821
 H        -1.570308         3.602538         2.167521
 H        -2.774922        -0.032666         3.208609
 H         0.007006         0.115798         2.956055
 H        -0.682897        -1.324325         2.111368
