19
Iteration:  3153
 O         0.696731         0.270906         0.071240
 C        -0.553633         0.449963         0.780703
 C        -1.816775        -0.006905         0.020291
 C        -2.550848         0.964674         1.094546
 C        -1.214142         1.837977         0.869897
 C        -1.161891         2.556709         2.171631
 O        -1.869068         1.720398         3.111229
 C        -2.067730         0.523179         2.439534
 C        -0.847729        -0.235520         2.158877
 H         1.347699        -0.037921         0.820202
 H        -1.957125         0.501101        -0.954154
 H        -2.068472        -1.136767         0.109728
 H        -3.595169         1.220241         0.816288
 H        -1.363547         2.300142        -0.069103
 H        -0.148152         2.810489         2.574483
 H        -1.741016         3.519862         2.207531
 H        -2.829233        -0.089687         3.028489
 H        -0.086168        -0.166459         3.004833
 H        -1.139138        -1.350200         2.121465
