19
Iteration:  1877charge 0 multiplicity 1
 O         0.673808         0.442252         0.109919
 C        -0.586706         0.400738         0.809612
 C        -1.843365        -0.065501         0.147086
 C        -2.595891         0.922215         0.983162
 C        -1.273570         1.853570         0.838921
 C        -0.962477         2.514252         2.254328
 O        -1.832411         1.714982         3.105418
 C        -2.173896         0.524107         2.423152
 C        -0.882313        -0.264963         2.120431
 H         1.113604        -0.330274         0.033890
 H        -1.658321         0.098659        -1.000730
 H        -2.067646        -1.111431         0.097827
 H        -3.510055         1.502827         0.768158
 H        -1.166507         2.498966        -0.098753
 H         0.096093         2.338614         2.478527
 H        -1.214506         3.664787         2.297958
 H        -3.064710         0.129699         2.933266
 H        -0.213688        -0.052987         3.034891
 H        -0.855812        -1.351296         2.101922
