19
Iteration:  3998
 O         0.724096         0.194329         0.243704
 C        -0.566323         0.436127         0.656391
 C        -1.876832         0.011569        -0.041736
 C        -2.453007         0.944474         0.944535
 C        -1.208097         1.952061         0.894780
 C        -1.157864         2.583869         2.326828
 O        -1.767512         1.669647         3.188507
 C        -2.199730         0.478175         2.395026
 C        -0.853910        -0.268003         2.168880
 H         0.601179         0.179207        -0.658773
 H        -2.126661         0.542287        -0.976946
 H        -2.212941        -0.968459        -0.022605
 H        -3.429594         1.369839         0.668033
 H        -1.194037         2.579394         0.085542
 H        -0.160163         2.977340         2.592381
 H        -1.801929         3.521357         2.412325
 H        -3.094533         0.215442         2.987307
 H        -0.089914        -0.043372         2.964002
 H        -0.890612        -1.355423         1.917582
