19
Iteration:  4587charge 0 multiplicity 1
 O         0.644566         0.033899         0.057072
 C        -0.519563         0.478493         0.749465
 C        -1.828089         0.101444        -0.017446
 C        -2.440320         0.999324         1.004595
 C        -1.231572         1.970258         0.926014
 C        -1.229690         2.538280         2.354769
 O        -1.887768         1.648570         3.219986
 C        -2.096150         0.490092         2.399204
 C        -0.809975        -0.210134         2.083752
 H         1.158783         0.724779        -0.198834
 H        -1.734902         0.541312        -1.023421
 H        -2.070106        -0.892487        -0.125282
 H        -3.469710         1.495811         0.989083
 H        -1.081992         2.737930         0.184189
 H        -0.232009         2.687080         2.736899
 H        -1.756776         3.440289         2.314620
 H        -2.884646        -0.131402         2.863500
 H        -0.106917        -0.114228         2.895314
 H        -0.961034        -1.324898         1.940842
