19
Iteration:   174charge 0 multiplicity 1
 O         0.653565         0.253907         0.265640
 C        -0.584308         0.350584         0.763159
 C        -1.940292         0.092474        -0.039994
 C        -2.445986         1.057057         1.019997
 C        -1.108144         1.862095         0.903334
 C        -1.049670         2.475335         2.192045
 O        -1.945449         1.744302         3.088058
 C        -2.078688         0.473960         2.406172
 C        -0.861127        -0.354307         2.141767
 H         0.981315         1.229599        -0.099611
 H        -1.991598         0.475895        -1.011806
 H        -2.342077        -1.018772         0.003731
 H        -3.418446         1.473806         1.042447
 H        -0.864447         2.431625         0.039262
 H        -0.104333         2.445744         2.703310
 H        -1.359453         3.611957         2.363307
 H        -2.970377         0.042764         2.797153
 H        -0.036979        -0.263049         2.858243
 H        -1.298587        -1.384983         2.021237
