19
Iteration:  2252charge 0 multiplicity 1
 O         0.562298         0.251186        -0.041973
 C        -0.549531         0.407353         0.741275
 C        -1.757746        -0.060005         0.061330
 C        -2.519780         0.925457         0.973481
 C        -1.241206         1.891620         0.938591
 C        -1.066928         2.530388         2.265120
 O        -1.931636         1.767446         3.144736
 C        -2.113588         0.525758         2.427182
 C        -0.803797        -0.185782         2.241252
 H         1.350568         0.244184         0.454570
 H        -1.709127         0.168267        -0.993010
 H        -1.905288        -1.131749         0.182943
 H        -3.589850         1.325423         0.981686
 H        -1.053697         2.528454         0.003769
 H        -0.019085         2.522108         2.561856
 H        -1.440128         3.566845         2.238851
 H        -2.906810        -0.083551         2.952989
 H        -0.137140        -0.018670         3.036545
 H        -0.951328        -1.325483         2.161213
