19
Iteration:  1151
 O         0.758848         0.146539         0.112558
 C        -0.563313         0.416409         0.713172
 C        -1.991426         0.062771        -0.110030
 C        -2.589443         0.986333         0.969533
 C        -1.216916         1.856423         0.943150
 C        -1.071028         2.514484         2.335150
 O        -1.907974         1.718289         3.254412
 C        -2.091291         0.506012         2.379721
 C        -0.818496        -0.183441         2.102077
 H         1.346256         0.420626         0.757540
 H        -1.683547         0.454856        -1.003227
 H        -2.184981        -1.036201        -0.300856
 H        -3.524183         1.539071         0.956668
 H        -1.115536         2.498035         0.092612
 H        -0.034678         2.633610         2.592838
 H        -1.529447         3.663623         2.339634
 H        -2.800555        -0.106300         2.915411
 H        -0.022621         0.018344         2.843057
 H        -0.860313        -1.328469         1.952909
