19
Iteration:  1874charge 0 multiplicity 1
 O         0.649872         0.452397         0.106282
 C        -0.601454         0.406841         0.816380
 C        -1.822156        -0.083382         0.113427
 C        -2.583461         0.927627         0.990958
 C        -1.269772         1.878414         0.845531
 C        -0.944846         2.525188         2.280437
 O        -1.835044         1.700193         3.091552
 C        -2.180965         0.541124         2.406858
 C        -0.877212        -0.273755         2.153516
 H         1.085258        -0.503564         0.042993
 H        -1.709947         0.137986        -0.892951
 H        -2.023242        -1.155658         0.170406
 H        -3.466036         1.447178         0.691755
 H        -1.304227         2.424636        -0.120601
 H         0.120724         2.332614         2.431051
 H        -1.224762         3.677404         2.242336
 H        -3.025062         0.097534         2.880232
 H        -0.141526        -0.053627         3.049157
 H        -0.887978        -1.391720         2.067987
