19
Iteration:  1585
 O         0.758285         0.391216         0.095835
 C        -0.627153         0.340737         0.732392
 C        -1.887065        -0.042058        -0.080703
 C        -2.609968         1.033906         0.941048
 C        -1.220396         1.814587         0.978247
 C        -1.013417         2.553354         2.274091
 O        -1.846741         1.714360         3.232846
 C        -2.229621         0.545075         2.458117
 C        -0.826370        -0.302895         2.084988
 H         1.435206        -0.103594         0.762337
 H        -1.804033         0.153563        -1.104612
 H        -2.136984        -1.111881         0.002347
 H        -3.592168         1.441667         0.658626
 H        -1.193425         2.419384         0.065314
 H         0.046984         2.506190         2.425086
 H        -1.301025         3.701663         2.308935
 H        -2.986353         0.021882         3.103832
 H        -0.084720        -0.067289         2.887867
 H        -0.897245        -1.448580         1.984414
