19
Iteration:  3099charge 0 multiplicity 1
 O         0.729957         0.402039         0.185853
 C        -0.597146         0.480694         0.789797
 C        -1.878323        -0.081926         0.111874
 C        -2.584570         0.964793         1.027416
 C        -1.249858         1.873368         0.847153
 C        -1.026471         2.431757         2.139600
 O        -1.863588         1.723849         3.092944
 C        -2.230638         0.470512         2.457279
 C        -0.752838        -0.174450         2.122504
 H         0.984313        -0.622502         0.157915
 H        -1.864250         0.110432        -0.980605
 H        -2.203038        -1.175377         0.226485
 H        -3.542186         1.423956         0.688171
 H        -1.314294         2.425237         0.013604
 H         0.037587         2.294528         2.277824
 H        -1.245788         3.539932         2.355089
 H        -3.058625        -0.110339         2.986728
 H         0.000948         0.358033         2.797979
 H        -0.713227        -1.315962         2.082474
