19
Iteration:  4499charge 0 multiplicity 1
 O         0.682163         0.497762         0.221913
 C        -0.630725         0.418889         0.696984
 C        -1.937025        -0.011165        -0.058845
 C        -2.515345         0.943813         0.960258
 C        -1.197370         1.821760         0.909130
 C        -0.892712         2.425563         2.277262
 O        -1.923480         1.686941         3.160241
 C        -2.182511         0.496482         2.462720
 C        -0.838187        -0.213188         2.142141
 H         0.902052        -0.235866        -0.372603
 H        -1.950035         0.196934        -1.157678
 H        -2.154686        -1.030627         0.006378
 H        -3.459356         1.571468         0.795516
 H        -1.015178         2.385280        -0.016522
 H         0.107785         2.149345         2.734913
 H        -1.077620         3.432633         2.347950
 H        -2.995524        -0.073546         3.034305
 H        -0.031127        -0.098391         2.838187
 H        -1.036579        -1.318689         2.017386
