19
Iteration:   169charge 0 multiplicity 1
 O         0.652764         0.248214         0.246627
 C        -0.583888         0.370739         0.754739
 C        -1.970261         0.070524        -0.046620
 C        -2.488256         1.030372         1.024200
 C        -1.049675         1.844823         0.905658
 C        -1.036891         2.518549         2.263793
 O        -1.941048         1.705483         3.074266
 C        -2.094184         0.487392         2.371678
 C        -0.858595        -0.285510         2.172679
 H         0.904925         0.988916        -0.182869
 H        -1.938639         0.448473        -1.123201
 H        -2.284509        -0.965643         0.057165
 H        -3.540216         1.442959         0.962222
 H        -0.718377         2.405546        -0.024575
 H        -0.042834         2.437568         2.810356
 H        -1.417736         3.485064         2.307130
 H        -2.936599        -0.056622         2.876318
 H        -0.078125        -0.109689         2.929750
 H        -1.248740        -1.275042         1.914947
