19
Iteration:  4608
 O         0.697632         0.215091         0.072202
 C        -0.583816         0.411273         0.750419
 C        -1.878279         0.007743        -0.032786
 C        -2.531756         1.016865         0.963564
 C        -1.155872         1.847786         0.996664
 C        -1.023944         2.571388         2.384788
 O        -1.951478         1.678150         3.204825
 C        -2.223969         0.513894         2.392713
 C        -0.763256        -0.267391         2.078477
 H         0.861571         0.974773        -0.620466
 H        -1.809353         0.280993        -1.093314
 H        -2.041082        -1.001966         0.011927
 H        -3.463740         1.570944         0.637895
 H        -1.062607         2.387372         0.077281
 H        -0.039289         2.686288         2.809878
 H        -1.599130         3.508408         2.411852
 H        -2.921994        -0.067635         3.031177
 H        -0.055525         0.056250         2.830101
 H        -0.773261        -1.404851         2.082047
