19
Iteration:  2195charge 0 multiplicity 1
 O         0.622166         0.165332         0.140821
 C        -0.566335         0.454943         0.736345
 C        -1.863644        -0.057092         0.044410
 C        -2.579408         0.953682         0.945595
 C        -1.286016         1.875911         0.902864
 C        -1.145346         2.607048         2.223252
 O        -1.751008         1.700790         3.182318
 C        -2.156952         0.488506         2.417900
 C        -0.767035        -0.184379         2.104925
 H         1.362600         0.430529         0.872054
 H        -1.848100         0.395496        -1.022264
 H        -2.058123        -1.177394        -0.100043
 H        -3.454360         1.515174         0.806325
 H        -1.188745         2.464378         0.035054
 H        -0.097699         2.841224         2.523548
 H        -1.663356         3.512029         2.292531
 H        -2.911324         0.130448         3.124094
 H        -0.004266         0.171984         2.828006
 H        -0.596265        -1.304429         1.976386
