19
Iteration:  1972
 O         0.643031         0.342675         0.025949
 C        -0.511045         0.372054         0.734752
 C        -1.948214        -0.067525         0.041137
 C        -2.523848         1.001648         0.937577
 C        -1.162168         1.752927         0.963398
 C        -1.126423         2.561411         2.262695
 O        -1.902935         1.752753         3.168008
 C        -2.152338         0.588367         2.431603
 C        -0.737647        -0.249679         2.158693
 H         1.179692        -0.379309         0.572579
 H        -1.956309         0.079824        -1.011279
 H        -2.266527        -1.140309         0.121596
 H        -3.544555         1.412905         0.945762
 H        -1.051808         2.423655         0.059785
 H        -0.118531         2.943530         2.605833
 H        -1.623516         3.515518         2.072772
 H        -2.757806        -0.083759         3.027080
 H         0.071663         0.040410         2.948142
 H        -0.731144        -1.334946         2.202187
