19
Iteration:  2472
 O         0.629893         0.291378         0.051882
 C        -0.608783         0.413591         0.813448
 C        -1.787960        -0.045427         0.002527
 C        -2.522179         0.959977         1.025800
 C        -1.227282         1.858259         0.865370
 C        -1.241359         2.605504         2.161296
 O        -1.769827         1.784638         3.188479
 C        -2.086536         0.469262         2.477436
 C        -0.824179        -0.306903         2.167383
 H         1.442579        -0.068144         0.639262
 H        -1.708944         0.297899        -1.009046
 H        -2.055809        -1.126117        -0.107508
 H        -3.628767         1.332093         1.074932
 H        -1.033059         2.514281        -0.067404
 H        -0.219987         2.956797         2.551466
 H        -1.830393         3.466158         2.057034
 H        -2.911479        -0.008815         2.969603
 H        -0.083388        -0.116792         2.859128
 H        -1.046240        -1.402857         2.038137
