19
Iteration:  4097charge 0 multiplicity 1
 O         0.764980         0.275273         0.197225
 C        -0.567831         0.394981         0.707642
 C        -1.964685        -0.036109         0.006362
 C        -2.538145         1.046324         1.000526
 C        -1.155511         1.808641         0.949902
 C        -1.046709         2.528102         2.362960
 O        -1.934324         1.758541         3.109868
 C        -2.173329         0.450688         2.383104
 C        -0.768527        -0.193945         2.073016
 H         0.648985         0.270629        -0.733940
 H        -1.990836         0.390110        -1.018616
 H        -2.310860        -1.044276         0.052293
 H        -3.612869         1.339346         0.750213
 H        -1.110324         2.385031         0.077328
 H        -0.049383         2.508061         2.907937
 H        -1.438427         3.591859         2.296868
 H        -2.822162        -0.303185         2.954946
 H        -0.083495         0.173593         2.812989
 H        -0.834752        -1.326080         2.200800
