19
Iteration:  3821
 O         0.655986         0.283793         0.164111
 C        -0.557810         0.442400         0.765473
 C        -1.845125         0.002780         0.007434
 C        -2.484675         0.993489         0.984380
 C        -1.197116         1.842436         0.890710
 C        -1.044040         2.478090         2.219118
 O        -1.901307         1.682003         3.132995
 C        -2.181254         0.518511         2.465475
 C        -0.845360        -0.198641         2.168381
 H         0.505794         0.034271        -0.812897
 H        -1.645818         0.295379        -1.071976
 H        -2.069416        -1.003026         0.234205
 H        -3.437396         1.503980         0.712164
 H        -1.011292         2.511825         0.061298
 H        -0.051631         2.567116         2.659011
 H        -1.500167         3.529362         2.230720
 H        -2.909867        -0.088532         3.053200
 H        -0.091078         0.059859         2.996108
 H        -0.894538        -1.303304         2.189472
