19
Iteration:  3406
 O         0.644173         0.233065         0.115879
 C        -0.649861         0.427683         0.796028
 C        -1.881534        -0.063047        -0.001460
 C        -2.585956         0.866911         0.982070
 C        -1.213248         1.842638         0.909680
 C        -1.016263         2.587062         2.203440
 O        -1.937311         1.776137         3.126622
 C        -2.115544         0.507886         2.444922
 C        -0.709256        -0.185228         2.188940
 H         1.233963         0.719204         0.572160
 H        -1.841447         0.329405        -1.048351
 H        -1.938451        -1.185327         0.038752
 H        -3.604768         1.116277         0.705450
 H        -1.075276         2.542547         0.047256
 H         0.059112         2.733129         2.494309
 H        -1.410515         3.522333         2.098202
 H        -2.791335        -0.033465         3.048595
 H         0.120999         0.035424         2.881815
 H        -0.904660        -1.227673         2.009995
