19
Iteration:  2215charge 0 multiplicity 1
 O         0.777742         0.110547         0.128793
 C        -0.556516         0.373830         0.641040
 C        -1.947217         0.039522        -0.051269
 C        -2.539085         0.996595         1.091733
 C        -1.281410         1.863783         0.845751
 C        -1.177683         2.551887         2.190490
 O        -1.875814         1.715708         3.216208
 C        -2.063621         0.492036         2.430597
 C        -0.753320        -0.131302         2.144198
 H         1.227488         0.601388         0.870620
 H        -2.181255         0.465464        -1.141052
 H        -2.410836        -1.070718         0.117775
 H        -3.543099         1.287998         1.157024
 H        -1.193107         2.549312         0.067574
 H        -0.133899         2.719404         2.728772
 H        -1.648970         3.491830         2.061619
 H        -2.745069        -0.071372         3.057912
 H         0.046110         0.279767         2.886552
 H        -0.912182        -1.209601         2.167959
