19
Iteration:  2611charge 0 multiplicity 1
 O         0.688586         0.176832         0.181137
 C        -0.579701         0.479616         0.687467
 C        -1.909073        -0.008414         0.009848
 C        -2.591213         0.970003         1.085738
 C        -1.267929         1.941631         0.830111
 C        -1.202305         2.538372         2.179601
 O        -1.833698         1.720181         3.184801
 C        -2.066655         0.437133         2.424886
 C        -0.677368        -0.193075         2.125760
 H         1.158351         0.169947         0.946218
 H        -2.063403         0.279280        -0.986347
 H        -2.156070        -1.105147        -0.107700
 H        -3.596929         1.339687         0.743488
 H        -1.097239         2.478158        -0.037410
 H        -0.182854         2.740588         2.381632
 H        -1.747998         3.585396         2.254772
 H        -2.778241        -0.200072         2.968377
 H         0.091843         0.245039         2.861659
 H        -0.668836        -1.361318         2.011513
