19
Iteration:  2545
 O         0.645005         0.285011        -0.024533
 C        -0.536350         0.405956         0.754901
 C        -1.843471        -0.057542         0.056500
 C        -2.562610         0.962395         1.047841
 C        -1.260588         1.816376         0.890116
 C        -1.039043         2.518518         2.264246
 O        -1.955544         1.765804         3.081719
 C        -2.167955         0.480465         2.425126
 C        -0.725578        -0.173905         2.212167
 H         1.388298         0.699493         0.602678
 H        -1.935449         0.286693        -0.963261
 H        -1.933969        -1.234430        -0.059991
 H        -3.566216         1.416549         0.995973
 H        -1.105922         2.388847         0.037146
 H        -0.021069         2.377560         2.631620
 H        -1.262415         3.666003         2.451094
 H        -2.849018        -0.025122         3.181475
 H        -0.233223         0.059662         3.252398
 H        -0.786968        -1.366905         2.143970
