19
Iteration:  4940charge 0 multiplicity 1
 O         0.751220         0.200374         0.288878
 C        -0.546639         0.436946         0.729401
 C        -1.916627        -0.092726         0.018288
 C        -2.573254         0.931845         1.045698
 C        -1.267225         1.878152         0.889291
 C        -1.094058         2.566649         2.202446
 O        -1.873379         1.769012         3.123900
 C        -2.103567         0.536205         2.422564
 C        -0.810036        -0.236154         2.074944
 H         0.879117         0.848124        -0.556648
 H        -1.783229         0.319334        -0.932057
 H        -2.239393        -1.101258         0.112693
 H        -3.630917         1.268930         0.922662
 H        -1.223064         2.593090        -0.036368
 H        -0.032730         2.705963         2.392653
 H        -1.614959         3.613060         2.174774
 H        -2.760982        -0.125047         3.111127
 H         0.103067        -0.070482         2.729119
 H        -0.898127        -1.308897         1.907395
