19
Iteration:   120
 O         0.692513         0.061349         0.197941
 C        -0.537704         0.523328         0.749969
 C        -1.859087         0.070667        -0.043180
 C        -2.521821         0.997313         0.938678
 C        -1.205341         1.958953         0.921218
 C        -1.019573         2.518931         2.385603
 O        -2.003843         1.705949         3.125843
 C        -2.104573         0.470484         2.428175
 C        -0.778550        -0.165938         2.086720
 H         0.353343        -0.551926        -0.610573
 H        -1.766204         0.537497        -0.975293
 H        -2.175192        -0.986876        -0.161042
 H        -3.496084         1.416306         0.748837
 H        -1.191109         2.670558         0.125791
 H        -0.070213         2.392350         2.866005
 H        -1.520635         3.596920         2.549940
 H        -2.809160        -0.108307         3.002529
 H        -0.012216        -0.004942         2.843195
 H        -0.904132        -1.215189         1.841085
