19
Iteration:  3982charge 0 multiplicity 1
 O         0.760580         0.168019         0.165995
 C        -0.539236         0.436360         0.724437
 C        -1.788768        -0.030440        -0.094366
 C        -2.547999         1.028504         0.991998
 C        -1.285450         1.884056         0.930397
 C        -1.129028         2.580248         2.306716
 O        -1.827659         1.667412         3.268766
 C        -2.180230         0.555957         2.436411
 C        -0.915219        -0.182571         2.073379
 H         0.784450        -0.040886        -0.812711
 H        -1.723596         0.389872        -1.131624
 H        -1.916544        -1.201899         0.008750
 H        -3.578649         1.358428         0.850213
 H        -1.214897         2.596161         0.003035
 H        -0.045271         2.569736         2.634595
 H        -1.495035         3.585061         2.331604
 H        -2.829042        -0.160574         2.937600
 H        -0.121636         0.051494         2.797257
 H        -1.047248        -1.271524         2.020429
