19
Iteration:  2182
 O         0.576522         0.244690         0.083582
 C        -0.634692         0.468950         0.808663
 C        -1.755656        -0.049381         0.001781
 C        -2.555763         0.961313         1.006278
 C        -1.261859         1.892372         0.884251
 C        -1.122802         2.594170         2.214214
 O        -1.746018         1.727032         3.150397
 C        -2.148357         0.510125         2.404928
 C        -0.805996        -0.254342         2.174658
 H         1.305787         0.233974         0.645710
 H        -1.743070         0.197636        -1.161249
 H        -1.992556        -1.189852         0.292341
 H        -3.593395         1.065688         0.877108
 H        -1.109704         2.512811         0.040225
 H        -0.012992         2.771835         2.526068
 H        -1.588874         3.512063         2.086812
 H        -2.882561        -0.134824         2.874073
 H        -0.155182        -0.157941         3.137062
 H        -0.990400        -1.324543         2.009046
