19
Iteration:  1222charge 0 multiplicity 1
 O         0.694170         0.261676         0.033317
 C        -0.562777         0.443125         0.733400
 C        -1.909753        -0.055257        -0.055579
 C        -2.450222         1.040599         1.067895
 C        -1.149386         1.831397         0.916941
 C        -1.005935         2.546264         2.261255
 O        -1.966215         1.689947         3.202279
 C        -2.187997         0.465489         2.409426
 C        -0.863677        -0.213127         2.144076
 H         1.366826         0.229162         0.702618
 H        -2.066080         0.543454        -1.092043
 H        -2.301963        -1.066912        -0.075471
 H        -3.465773         1.532921         1.025757
 H        -0.936292         2.465728        -0.017915
 H        -0.023546         2.671677         2.839273
 H        -1.464859         3.490384         2.181120
 H        -3.023068        -0.106441         2.889235
 H        -0.174394         0.099272         2.983762
 H        -0.897503        -1.282169         2.072027
