19
Iteration:  3059charge 0 multiplicity 1
 O         0.677315         0.308427         0.090273
 C        -0.566505         0.353723         0.741498
 C        -1.829849        -0.056930        -0.016179
 C        -2.443726         0.982843         1.020340
 C        -1.143913         1.781234         0.923033
 C        -1.181588         2.589735         2.198157
 O        -1.952962         1.774936         3.159823
 C        -2.177009         0.523572         2.543802
 C        -0.753003        -0.238823         2.143697
 H         0.609280        -0.440269        -0.441618
 H        -1.906965         0.438170        -0.941552
 H        -2.078326        -1.075515         0.034211
 H        -3.442742         1.427737         0.849028
 H        -1.205706         2.433030        -0.033560
 H        -0.276895         2.827856         2.794343
 H        -1.676422         3.549019         1.921587
 H        -2.761401        -0.027599         3.286040
 H         0.047109         0.104560         2.822716
 H        -0.644411        -1.283779         2.070288
