19
Iteration:  1052
 O         0.716566         0.275930         0.137691
 C        -0.559136         0.428385         0.695649
 C        -1.902647         0.012781        -0.046254
 C        -2.506604         0.996570         1.013356
 C        -1.208190         1.914538         0.920411
 C        -1.018177         2.511690         2.292366
 O        -1.934910         1.668457         3.124864
 C        -2.182793         0.510013         2.456265
 C        -0.810321        -0.207882         2.124391
 H         0.978815        -0.614105         0.401137
 H        -1.952929         0.420173        -1.041216
 H        -2.350401        -1.052490        -0.133988
 H        -3.518366         1.508104         0.963943
 H        -1.280345         2.581312         0.011165
 H        -0.044009         2.265420         2.644197
 H        -1.128638         3.601106         2.447234
 H        -2.993819        -0.078123         2.877485
 H        -0.058806         0.128033         2.862651
 H        -0.798001        -1.349735         2.300826
