19
Iteration:   215
 O         0.679411         0.164282         0.261887
 C        -0.603753         0.476026         0.689491
 C        -1.830364         0.003321        -0.070910
 C        -2.499269         0.950230         0.944000
 C        -1.215965         1.921184         0.881052
 C        -1.038418         2.475642         2.280417
 O        -1.742586         1.642588         3.205544
 C        -2.243458         0.564107         2.386438
 C        -0.969461        -0.183375         2.163439
 H         1.225765         0.958639         0.234785
 H        -1.953613         0.438365        -1.047960
 H        -2.032171        -1.136780        -0.007592
 H        -3.509186         1.320522         0.689094
 H        -1.149194         2.655463         0.052683
 H         0.085431         2.484236         2.446697
 H        -1.432028         3.396432         2.219631
 H        -2.989623         0.023871         2.897276
 H        -0.204483         0.227472         2.810915
 H        -1.114474        -1.264703         1.957621
