19
Iteration:  3318
 O         0.708758         0.207783         0.056467
 C        -0.516253         0.420751         0.787319
 C        -1.862297         0.009456         0.071989
 C        -2.558670         0.872372         1.038455
 C        -1.214404         1.816705         0.900546
 C        -1.248687         2.578787         2.174018
 O        -1.786924         1.772217         3.178498
 C        -2.139224         0.544909         2.437874
 C        -0.859034        -0.166224         2.126798
 H         1.343924        -0.228325         0.571067
 H        -1.882072         0.566472        -0.875399
 H        -2.009432        -1.102158        -0.195822
 H        -3.496869         1.279803         0.760097
 H        -1.225469         2.290353        -0.122451
 H        -0.177349         2.809135         2.529437
 H        -1.779690         3.474565         2.100673
 H        -2.689927        -0.057841         3.116560
 H        -0.177552         0.111014         2.980770
 H        -0.766428        -1.234066         1.943454
