19
Iteration:   464charge 0 multiplicity 1
 O         0.731789         0.233109         0.077687
 C        -0.596389         0.373751         0.681389
 C        -1.893089        -0.026735        -0.018696
 C        -2.504949         1.082148         0.936153
 C        -1.120315         1.827840         0.872585
 C        -1.051022         2.547948         2.319052
 O        -1.922337         1.669938         3.241571
 C        -2.136099         0.549966         2.400540
 C        -0.900805        -0.217261         2.144650
 H         1.351171         0.426653         0.733959
 H        -2.078811         0.240463        -1.056529
 H        -2.219126        -1.051251         0.280774
 H        -3.486287         1.477833         0.801159
 H        -0.906826         2.530508         0.063047
 H        -0.127562         2.720821         2.906312
 H        -1.634370         3.433598         2.212407
 H        -2.909168         0.027877         2.863163
 H        -0.192128        -0.127491         2.960893
 H        -1.208259        -1.274228         2.104200
