19
Iteration:  1142
 O         0.702599         0.208630         0.147433
 C        -0.570921         0.367786         0.671343
 C        -1.940640         0.069573        -0.114141
 C        -2.541692         0.989111         0.984655
 C        -1.196087         1.909504         0.884851
 C        -1.100666         2.592400         2.328308
 O        -1.837772         1.711568         3.234378
 C        -2.129906         0.442581         2.340851
 C        -0.818282        -0.272941         2.143691
 H         1.281615         0.251908         0.842139
 H        -1.909400         0.537748        -1.135891
 H        -2.344732        -1.021910        -0.190435
 H        -3.539713         1.286325         1.000186
 H        -1.107890         2.609062         0.136724
 H        -0.102237         2.641538         2.816903
 H        -1.483227         3.694610         2.307680
 H        -2.894290         0.002387         3.001081
 H        -0.082522         0.012042         2.962422
 H        -0.969661        -1.408816         2.280982
