19
Iteration:  2329
 O         0.724392         0.151014         0.106557
 C        -0.567012         0.448651         0.704496
 C        -1.761615        -0.020697        -0.027734
 C        -2.613700         0.930541         1.070216
 C        -1.407515         1.884006         0.916183
 C        -1.161756         2.579947         2.189813
 O        -1.765816         1.737436         3.179033
 C        -2.119689         0.524510         2.456592
 C        -0.808460        -0.185906         2.146591
 H         1.540627         0.214768         0.815111
 H        -1.956473         0.589045        -0.867884
 H        -2.009211        -1.075371        -0.260999
 H        -3.727032         1.330356         0.977762
 H        -1.353580         2.393949        -0.129384
 H        -0.087257         2.716765         2.489088
 H        -1.586936         3.524721         1.866227
 H        -2.733605        -0.108731         3.148683
 H        -0.165787         0.091476         2.901448
 H        -0.874136        -1.319303         2.028078
