19
Iteration:  3934
 O         0.745363         0.254768         0.135531
 C        -0.582815         0.335944         0.684685
 C        -1.932416        -0.000472        -0.025878
 C        -2.549053         1.015067         0.948365
 C        -1.215349         1.795622         0.932838
 C        -0.982226         2.447629         2.350001
 O        -1.974190         1.734238         3.176186
 C        -2.195453         0.540589         2.440753
 C        -0.730759        -0.176219         2.118213
 H         0.899189         1.019987        -0.349144
 H        -1.972753         0.297466        -1.051581
 H        -2.244209        -0.991928         0.150765
 H        -3.469172         1.585030         0.717156
 H        -1.047606         2.506134         0.096315
 H        -0.009168         2.422554         2.774719
 H        -1.321893         3.543704         2.285225
 H        -2.914091        -0.149674         2.901600
 H         0.030816         0.187021         2.799855
 H        -0.928800        -1.241074         2.314037
