19
Iteration:  1555charge 0 multiplicity 1
 O         0.668120         0.158887         0.155873
 C        -0.586528         0.486552         0.740424
 C        -1.884009         0.110731        -0.024447
 C        -2.532473         1.004813         1.032648
 C        -1.192832         1.910018         0.923652
 C        -1.059001         2.568430         2.191163
 O        -1.878655         1.603063         3.147179
 C        -2.127384         0.426420         2.446573
 C        -0.814298        -0.170358         2.097980
 H         1.220236         0.273883         0.839376
 H        -1.710751         0.401400        -1.057512
 H        -2.179535        -1.031332        -0.208765
 H        -3.645188         1.301490         0.851404
 H        -1.442714         2.495137         0.019146
 H         0.011622         2.756096         2.593546
 H        -1.529516         3.570589         2.380082
 H        -2.861967        -0.158723         3.155675
 H        -0.151501        -0.077329         2.911147
 H        -0.878003        -1.257458         1.780750
