19
Iteration:  4527
 O         0.708421         0.378944         0.067523
 C        -0.561670         0.440378         0.773725
 C        -1.867110         0.066649        -0.001995
 C        -2.551943         0.988995         0.952615
 C        -1.270728         1.878887         0.960079
 C        -1.013504         2.527220         2.232731
 O        -1.842538         1.659549         3.221367
 C        -2.219147         0.448353         2.430415
 C        -0.883282        -0.310972         2.081918
 H         1.268642        -0.344217         0.496925
 H        -1.724646         0.280638        -1.055963
 H        -2.091456        -1.037931         0.259638
 H        -3.462999         1.488113         0.763448
 H        -0.975781         2.457643         0.055866
 H         0.052846         2.482787         2.555051
 H        -1.231193         3.705570         2.343011
 H        -2.976933        -0.082619         2.995709
 H        -0.177972        -0.150450         2.952295
 H        -1.024865        -1.375243         1.867567
