19
Iteration:  2046charge 0 multiplicity 1
 O         0.705519         0.385104         0.175271
 C        -0.565115         0.400078         0.766243
 C        -1.930998        -0.054210         0.047965
 C        -2.555745         0.939668         1.055617
 C        -1.264509         1.828863         0.859563
 C        -1.077759         2.554565         2.165657
 O        -1.780744         1.726755         3.086503
 C        -2.159187         0.514824         2.434004
 C        -0.801366        -0.242489         2.188506
 H         0.933460        -0.504273        -0.009412
 H        -1.932725         0.249897        -0.973610
 H        -2.283676        -1.165348         0.161496
 H        -3.518055         1.493867         0.986847
 H        -1.130662         2.362509        -0.097832
 H        -0.088092         2.753151         2.617843
 H        -1.566505         3.525703         2.088649
 H        -2.945097        -0.012576         2.978681
 H        -0.090215         0.052096         2.910686
 H        -0.808991        -1.324985         1.951173
