19
Iteration:  3512charge 0 multiplicity 1
 O         0.670275         0.403037         0.152351
 C        -0.587802         0.374316         0.703122
 C        -1.875078        -0.163725         0.099470
 C        -2.509049         0.939106         0.997945
 C        -1.213787         1.800894         0.826631
 C        -0.997480         2.464556         2.190161
 O        -1.969944         1.738384         3.187945
 C        -2.161978         0.598939         2.411124
 C        -0.767419        -0.121530         2.148405
 H         1.104510        -0.425731         0.161533
 H        -2.150821         0.085066        -0.870463
 H        -2.118271        -1.178888         0.389052
 H        -3.452497         1.393863         0.839580
 H        -1.034068         2.611108        -0.062294
 H        -0.025539         2.452716         2.665164
 H        -1.388025         3.607566         1.998149
 H        -2.935684         0.018885         2.888027
 H        -0.014099         0.221994         2.838499
 H        -0.738099        -1.244949         2.197443
