19
Iteration:  4341charge 0 multiplicity 1
 O         0.734848         0.372821         0.270277
 C        -0.561319         0.372449         0.693971
 C        -1.958240        -0.008760         0.006715
 C        -2.620018         0.987857         0.956177
 C        -1.188677         1.815014         0.859633
 C        -0.997551         2.450878         2.312182
 O        -1.887054         1.716524         3.145973
 C        -2.113005         0.459736         2.405735
 C        -0.840894        -0.201260         2.131062
 H         0.736999         0.851863        -0.684538
 H        -1.973160         0.340197        -1.044950
 H        -2.391316        -1.089752        -0.028641
 H        -3.599260         1.412888         0.977368
 H        -1.045322         2.584751        -0.013569
 H         0.144482         2.279636         2.615329
 H        -1.213770         3.543673         2.365413
 H        -2.909115        -0.053213         2.875890
 H        -0.006790         0.022348         2.891206
 H        -0.844756        -1.325843         2.021176
