19
Iteration:  2963charge 0 multiplicity 1
 O         0.645692         0.509970         0.153633
 C        -0.549511         0.357325         0.759761
 C        -1.916528        -0.078037         0.024567
 C        -2.537314         0.918107         1.027145
 C        -1.205438         1.742679         0.894967
 C        -0.996662         2.488844         2.184483
 O        -1.939875         1.814756         3.098821
 C        -2.119354         0.504868         2.477986
 C        -0.798001        -0.260813         2.145933
 H         1.185927        -0.351685         0.049500
 H        -1.982801         0.369508        -1.032126
 H        -2.407209        -1.096621         0.138553
 H        -3.496697         1.398925         0.963372
 H        -0.859237         2.356006        -0.052712
 H         0.094116         2.504301         2.589568
 H        -1.228302         3.514808         2.015729
 H        -2.836368        -0.044982         2.994895
 H        -0.245814        -0.003953         3.023439
 H        -0.941554        -1.397779         2.104575
