19
Iteration:  2055
 O         0.709946         0.390378         0.152160
 C        -0.572689         0.375543         0.806874
 C        -2.002743        -0.055423         0.104477
 C        -2.526847         1.009890         1.004691
 C        -1.165550         1.761484         0.884114
 C        -1.114034         2.614799         2.188701
 O        -1.827281         1.743452         3.051378
 C        -2.157515         0.435803         2.454692
 C        -0.759925        -0.263328         2.144526
 H         1.062289        -0.441247        -0.025301
 H        -1.887379         0.365523        -0.859979
 H        -2.269236        -1.078765         0.047152
 H        -3.458103         1.553074         1.037722
 H        -1.187371         2.383046         0.033927
 H        -0.079898         2.835722         2.325337
 H        -1.753265         3.632745         2.106752
 H        -2.887384        -0.026629         3.136871
 H        -0.003277        -0.005463         2.799392
 H        -0.958351        -1.391597         2.096741
