19
Iteration:  1980
 O         0.677977         0.368666         0.057957
 C        -0.586273         0.355930         0.777553
 C        -1.959241        -0.083340         0.026322
 C        -2.488881         1.061149         1.063323
 C        -1.155664         1.774363         0.862588
 C        -1.119431         2.532827         2.212803
 O        -1.950792         1.740243         3.122355
 C        -2.116169         0.519810         2.462903
 C        -0.689685        -0.239842         2.154400
 H         1.379278        -0.298498         0.518406
 H        -1.937452         0.258639        -0.998690
 H        -2.605297        -1.034233         0.171711
 H        -3.458600         1.518335         0.931862
 H        -1.090074         2.318212        -0.052995
 H        -0.123489         2.690833         2.660848
 H        -1.542442         3.484526         2.087430
 H        -2.850473         0.003279         3.090732
 H        -0.111388         0.088156         2.911354
 H        -0.806143        -1.309277         2.082455
