19
Iteration:  4343
 O         0.736371         0.377255         0.264894
 C        -0.549266         0.379881         0.695291
 C        -1.952903        -0.009614         0.007436
 C        -2.622958         0.980283         0.954221
 C        -1.193365         1.808158         0.856860
 C        -0.983448         2.443762         2.309330
 O        -1.890605         1.715677         3.157090
 C        -2.122005         0.453021         2.417020
 C        -0.857749        -0.177074         2.119654
 H         0.706592         0.795149        -0.634361
 H        -1.912308         0.375217        -0.994834
 H        -2.359484        -1.053758         0.006156
 H        -3.586314         1.413470         0.942193
 H        -1.047226         2.548133        -0.065291
 H         0.152034         2.307041         2.535948
 H        -1.147339         3.466821         2.375104
 H        -2.894742        -0.145866         2.900865
 H        -0.028715         0.063986         2.891688
 H        -0.928591        -1.290401         1.993671
