19
Iteration:  1928charge 0 multiplicity 1
 O         0.729908         0.208785         0.148154
 C        -0.611709         0.459345         0.752566
 C        -1.883490         0.068763         0.009747
 C        -2.590165         0.946419         1.029298
 C        -1.302273         1.866396         0.916823
 C        -1.145160         2.544546         2.202968
 O        -1.845186         1.736909         3.140282
 C        -2.078997         0.460133         2.428793
 C        -0.721823        -0.189468         2.120210
 H         1.033866        -0.719044         0.501133
 H        -2.019190         0.372428        -0.961123
 H        -2.176641        -1.021886        -0.010611
 H        -3.588048         1.325703         0.779766
 H        -1.176554         2.484866         0.009373
 H        -0.035434         2.734605         2.452148
 H        -1.518368         3.636140         2.128592
 H        -2.836612        -0.051939         3.012564
 H         0.100416         0.039850         2.901664
 H        -0.829210        -1.293096         2.058805
