19
Iteration:  1554charge 0 multiplicity 1
 O         0.669821         0.152405         0.158461
 C        -0.574214         0.480976         0.736789
 C        -1.893157         0.109180        -0.033301
 C        -2.544347         1.013326         1.030513
 C        -1.187095         1.909162         0.926000
 C        -1.060308         2.574454         2.188792
 O        -1.880944         1.605228         3.151707
 C        -2.136520         0.420013         2.446461
 C        -0.804409        -0.170572         2.096582
 H         1.250529         0.295248         0.828921
 H        -1.740164         0.408070        -1.026817
 H        -2.154650        -1.028226        -0.185601
 H        -3.633038         1.325600         0.867496
 H        -1.446692         2.503962         0.038836
 H        -0.011433         2.742126         2.611730
 H        -1.560830         3.595738         2.384919
 H        -2.861315        -0.159424         3.153253
 H        -0.092223        -0.064148         2.882627
 H        -0.866174        -1.275865         1.789053
