19
Iteration:  3169charge 0 multiplicity 1
 O         0.610021         0.156750         0.091619
 C        -0.548594         0.435898         0.772524
 C        -1.829802        -0.053858         0.019538
 C        -2.488856         0.937332         0.910894
 C        -1.272663         1.912934         0.893542
 C        -1.201853         2.651563         2.255104
 O        -1.811634         1.692729         3.178392
 C        -2.164300         0.490100         2.445781
 C        -0.745320        -0.198390         2.161372
 H         1.448059         0.209867         0.733458
 H        -1.795257         0.310503        -1.014635
 H        -2.089606        -1.076876         0.037287
 H        -3.470191         1.387210         0.906427
 H        -1.077767         2.581767        -0.024391
 H        -0.181807         2.912989         2.554003
 H        -1.749602         3.644102         2.164615
 H        -2.936424        -0.041343         2.943129
 H        -0.058374         0.118161         2.949959
 H        -0.744206        -1.243188         1.934584
