19
Iteration:  4548
 O         0.638073         0.193893         0.131610
 C        -0.592847         0.406957         0.677232
 C        -1.893141         0.050988        -0.101391
 C        -2.484436         1.036565         1.018513
 C        -1.169002         1.898118         0.944797
 C        -1.165076         2.487628         2.345122
 O        -1.823991         1.659810         3.221308
 C        -2.099047         0.512721         2.394776
 C        -0.824884        -0.236769         2.054677
 H         1.314124         0.283021         0.913903
 H        -1.891672         0.663515        -1.017080
 H        -2.214949        -1.076967        -0.291545
 H        -3.471181         1.414491         0.935158
 H        -1.125126         2.498407         0.009560
 H        -0.164412         2.913697         2.669474
 H        -1.853659         3.543025         2.394247
 H        -2.811115        -0.065905         2.937976
 H        -0.024139         0.097159         2.778730
 H        -0.935713        -1.303489         2.027869
