19
Iteration:  1525
 O         0.691774         0.142747         0.021629
 C        -0.542264         0.301608         0.667284
 C        -1.917676        -0.002566        -0.040349
 C        -2.452371         1.064883         0.941273
 C        -1.157203         1.883549         0.990933
 C        -1.173228         2.583576         2.337543
 O        -1.931376         1.687921         3.258128
 C        -2.104440         0.534566         2.413462
 C        -0.814169        -0.172313         2.101073
 H         1.276488         0.648579         0.676098
 H        -1.698803         0.476130        -1.062590
 H        -2.270063        -1.053089        -0.012472
 H        -3.545593         1.268357         0.788580
 H        -1.173154         2.586862         0.138578
 H        -0.148138         2.669613         2.748859
 H        -1.732253         3.464283         2.409713
 H        -2.874789        -0.010866         2.988577
 H        -0.012327         0.082643         2.835717
 H        -0.946405        -1.241954         2.085132
