19
Iteration:  1800
 O         0.605202         0.216971         0.101656
 C        -0.556754         0.420322         0.720460
 C        -1.778685        -0.011148         0.032595
 C        -2.564083         0.984438         0.960847
 C        -1.248162         1.853466         0.883713
 C        -1.131842         2.620304         2.275816
 O        -1.877246         1.672765         3.178778
 C        -2.131142         0.525999         2.474419
 C        -0.704592        -0.173505         2.092691
 H         0.917667        -0.715604         0.468010
 H        -1.724150         0.490707        -1.000976
 H        -2.098549        -1.040323         0.079294
 H        -3.528372         1.428645         0.828845
 H        -1.097203         2.519313         0.010129
 H        -0.143713         2.707074         2.670598
 H        -1.708125         3.524443         2.239322
 H        -2.862152        -0.074960         3.002461
 H         0.063927        -0.006288         2.894052
 H        -0.978638        -1.196669         2.044303
