19
Iteration:  3424
 O         0.701990         0.289585         0.127957
 C        -0.530648         0.370811         0.732873
 C        -1.900326        -0.080776         0.090639
 C        -2.472295         1.021580         1.010073
 C        -1.257003         1.827962         0.837857
 C        -1.185848         2.548495         2.183334
 O        -1.847237         1.734409         3.136048
 C        -2.134673         0.496414         2.441868
 C        -0.814770        -0.210528         2.138192
 H         1.378618         0.420931         0.703731
 H        -1.998381         0.121046        -0.930807
 H        -2.271790        -1.052103         0.343825
 H        -3.399091         1.573781         1.013600
 H        -1.111092         2.296204        -0.254118
 H        -0.193268         2.750624         2.593509
 H        -1.699550         3.591295         2.133366
 H        -2.884162        -0.100321         3.001085
 H        -0.089886         0.127847         2.860576
 H        -0.754901        -1.293721         2.100053
