19
Iteration:  2959
 O         0.658597         0.501093         0.132182
 C        -0.580940         0.325192         0.773945
 C        -1.907095        -0.074285         0.059701
 C        -2.524983         0.909637         0.992472
 C        -1.187541         1.742848         0.870295
 C        -0.996125         2.477849         2.215105
 O        -1.924348         1.806507         3.098539
 C        -2.124936         0.531427         2.489793
 C        -0.807495        -0.235500         2.107962
 H         1.181239        -0.262459         0.166255
 H        -1.955299         0.242030        -0.923833
 H        -2.313978        -1.076231         0.056125
 H        -3.571050         1.358622         0.892800
 H        -0.938830         2.360909         0.032308
 H         0.062074         2.551277         2.523601
 H        -1.378333         3.530249         2.260529
 H        -2.886300        -0.082381         3.145415
 H        -0.229931         0.063513         3.036112
 H        -1.063698        -1.215150         2.016801
