19
Iteration:  1182charge 0 multiplicity 1
 O         0.616846         0.162911         0.009575
 C        -0.581018         0.484794         0.745073
 C        -1.860442         0.010191         0.005284
 C        -2.492943         0.976913         0.987867
 C        -1.142033         1.963293         0.927144
 C        -1.006783         2.497962         2.360260
 O        -1.968597         1.715268         3.148248
 C        -2.147024         0.460157         2.371320
 C        -0.841853        -0.230586         2.187558
 H         1.388472         0.667914         0.512836
 H        -1.745677         0.325543        -0.976407
 H        -2.001056        -1.079074         0.033559
 H        -3.521413         1.423004         0.977565
 H        -1.178226         2.631798         0.025699
 H         0.024874         2.349786         2.650939
 H        -1.370058         3.567457         2.494260
 H        -2.946251        -0.149390         2.734780
 H        -0.221617         0.091202         3.003706
 H        -0.837493        -1.327438         2.009852
