19
Iteration:  4494
 O         0.685977         0.481288         0.242617
 C        -0.630058         0.423324         0.710144
 C        -1.946251         0.002670        -0.101256
 C        -2.522872         0.971975         0.938508
 C        -1.159834         1.820627         0.955627
 C        -0.893521         2.397824         2.242872
 O        -1.952705         1.728127         3.205128
 C        -2.178084         0.463303         2.484571
 C        -0.839482        -0.215316         2.101623
 H         0.919441        -0.184788        -0.514469
 H        -1.954262         0.099305        -1.181529
 H        -2.285054        -1.104608         0.001847
 H        -3.445432         1.454796         0.792435
 H        -1.017994         2.319151        -0.017544
 H         0.128723         2.118752         2.445668
 H        -1.221042         3.509214         2.395355
 H        -2.855433        -0.130743         3.062451
 H         0.045593         0.027659         2.779318
 H        -0.904725        -1.311008         2.109052
