19
Iteration:  4646
 O         0.723262         0.415322         0.331241
 C        -0.612802         0.473935         0.706717
 C        -1.903103         0.001306        -0.027545
 C        -2.648222         0.965971         0.990432
 C        -1.277298         1.839166         0.891761
 C        -0.849947         2.417211         2.295001
 O        -1.885455         1.702089         3.113253
 C        -2.188315         0.480247         2.436257
 C        -0.822461        -0.268711         2.029251
 H         0.762105         0.116050        -0.658899
 H        -1.927983         0.355813        -1.069385
 H        -2.152010        -1.154823        -0.006191
 H        -3.555303         1.556141         0.928368
 H        -1.191561         2.594148         0.030282
 H         0.134723         2.075980         2.682238
 H        -0.989369         3.495752         2.413901
 H        -2.961975        -0.040283         3.043050
 H        -0.030017         0.056149         2.751108
 H        -0.764656        -1.329622         1.931437
