19
Iteration:   135charge 0 multiplicity 1
 O         0.740484         0.067384         0.163858
 C        -0.539080         0.416222         0.663829
 C        -1.771336         0.044381        -0.058757
 C        -2.485394         1.055579         0.951821
 C        -1.269460         1.969013         0.875010
 C        -1.111116         2.461042         2.366059
 O        -1.934617         1.671840         3.294744
 C        -2.202283         0.584685         2.392652
 C        -0.850075        -0.105295         2.129684
 H         0.687417        -0.122665        -0.781534
 H        -1.900614         0.296464        -1.177895
 H        -1.984534        -0.984453         0.043182
 H        -3.547862         1.346814         0.798612
 H        -1.061617         2.679256         0.040797
 H        -0.027813         2.207583         2.483415
 H        -1.163850         3.501316         2.529635
 H        -2.987663        -0.127828         2.807790
 H        -0.098388        -0.030923         2.909866
 H        -0.958815        -1.191848         2.186868
