19
Iteration:  4492
 O         0.691465         0.473485         0.247686
 C        -0.625471         0.419455         0.715715
 C        -1.944588        -0.002837        -0.108822
 C        -2.525341         0.988203         0.937152
 C        -1.157540         1.813086         0.957207
 C        -0.905344         2.391041         2.240953
 O        -1.957261         1.741829         3.215388
 C        -2.173876         0.456211         2.485853
 C        -0.835877        -0.221468         2.089208
 H         0.905611        -0.179005        -0.546466
 H        -1.959237         0.147322        -1.210222
 H        -2.311668        -1.080141         0.025080
 H        -3.513136         1.432877         0.792739
 H        -1.029218         2.334254         0.026124
 H         0.163542         2.137879         2.393867
 H        -1.226699         3.522030         2.401381
 H        -2.817245        -0.151846         3.064094
 H         0.009765         0.073673         2.725180
 H        -0.851316        -1.286084         2.134119
