19
Iteration:  1322charge 0 multiplicity 1
 O         0.650772         0.248941         0.020209
 C        -0.557486         0.384927         0.745119
 C        -1.859233        -0.007768         0.014621
 C        -2.526789         1.022352         0.977982
 C        -1.160667         1.860781         0.952631
 C        -1.073902         2.475224         2.340533
 O        -1.929509         1.759230         3.128883
 C        -2.180802         0.502640         2.428022
 C        -0.800376        -0.226258         2.122073
 H         1.370633         0.216300         0.561215
 H        -1.954740         0.420061        -1.071115
 H        -2.041531        -1.111805         0.044466
 H        -3.580357         1.338154         0.883188
 H        -0.815951         2.674876         0.248732
 H        -0.006190         2.573882         2.794040
 H        -1.502707         3.453335         2.340372
 H        -2.940328        -0.039440         2.956013
 H        -0.087209        -0.005909         2.907086
 H        -0.970436        -1.284797         1.983362
