19
Iteration:  2116
 O         0.654655         0.194231         0.129843
 C        -0.551726         0.470642         0.738471
 C        -1.901859        -0.058094         0.043612
 C        -2.576291         0.992612         1.018712
 C        -1.340515         1.944836         0.856458
 C        -1.059371         2.477718         2.229520
 O        -1.872202         1.727147         3.131028
 C        -2.129515         0.485452         2.392218
 C        -0.681159        -0.099949         2.174466
 H         1.079451        -0.550640         0.685739
 H        -1.767136         0.314606        -1.063098
 H        -2.045224        -1.243390         0.098553
 H        -3.647107         1.196422         0.965914
 H        -1.414070         2.533942        -0.072978
 H         0.055749         2.414530         2.441955
 H        -1.367092         3.423651         2.455940
 H        -2.939269         0.015006         2.950375
 H         0.159639         0.295902         2.876495
 H        -0.647691        -1.186615         2.053785
