19
Iteration:   760charge 0 multiplicity 1
 O         0.685810         0.301608         0.204462
 C        -0.576136         0.430674         0.733969
 C        -1.907693         0.024667        -0.057894
 C        -2.500722         0.994475         0.926338
 C        -1.170634         1.919376         0.882278
 C        -1.036404         2.496944         2.282439
 O        -1.893914         1.724769         3.179688
 C        -2.124070         0.483535         2.425617
 C        -0.839861        -0.265835         2.188251
 H         0.598828        -0.559574        -0.257018
 H        -1.960657         0.326437        -1.076495
 H        -2.337433        -1.041588        -0.077712
 H        -3.590401         1.390961         0.824614
 H        -1.036454         2.531099        -0.055728
 H         0.000207         2.426187         2.630346
 H        -1.334478         3.664495         2.279135
 H        -2.855933        -0.065925         3.089383
 H        -0.110498        -0.248300         3.005388
 H        -1.067692        -1.335356         1.937323
