19
Iteration:  3663
 O         0.675891         0.178885         0.156685
 C        -0.610313         0.476119         0.707540
 C        -1.824010        -0.118751         0.011604
 C        -2.591677         0.978863         1.046427
 C        -1.242795         1.835162         0.892205
 C        -1.030758         2.477613         2.243926
 O        -1.903524         1.786358         3.136100
 C        -2.181370         0.506438         2.435304
 C        -0.762582        -0.143524         2.130472
 H         1.125938         1.088509         0.068035
 H        -1.947864         0.114392        -1.045009
 H        -2.033200        -1.283407         0.129023
 H        -3.528414         1.400108         0.831909
 H        -1.263037         2.602297         0.045273
 H         0.064295         2.474465         2.633123
 H        -1.334338         3.490031         2.238397
 H        -2.889379        -0.098243         3.002992
 H        -0.033817         0.387313         2.733100
 H        -0.496251        -1.259688         2.082156
