19
Iteration:  3497charge 0 multiplicity 1
 O         0.817635         0.346206         0.121781
 C        -0.555191         0.406458         0.680719
 C        -2.001145        -0.124740         0.008764
 C        -2.528467         0.984322         1.003106
 C        -1.218502         1.768623         0.890541
 C        -1.137471         2.527532         2.243779
 O        -1.903449         1.828541         3.111656
 C        -2.143990         0.464114         2.503892
 C        -0.777923        -0.134791         2.162432
 H         1.074265        -0.553466         0.325838
 H        -1.973950         0.073553        -1.141287
 H        -2.269561        -1.202036         0.276456
 H        -3.530923         1.442687         0.783032
 H        -1.284676         2.253219         0.006254
 H        -0.040495         2.567290         2.460833
 H        -1.456242         3.518669         2.356284
 H        -2.857470        -0.127765         3.158525
 H         0.017364         0.322315         2.837431
 H        -0.845332        -1.269505         2.290785
