19
Iteration:  2609
 O         0.691327         0.179106         0.173125
 C        -0.576033         0.462249         0.678427
 C        -1.917428        -0.002874         0.025256
 C        -2.566039         0.986825         1.069619
 C        -1.270966         1.937053         0.834788
 C        -1.211058         2.527505         2.174016
 O        -1.841506         1.714493         3.180211
 C        -2.057987         0.440941         2.434495
 C        -0.678601        -0.195108         2.118584
 H         1.214549         0.235259         1.026850
 H        -2.096229         0.271851        -0.983898
 H        -2.186734        -1.027660        -0.017140
 H        -3.588719         1.293890         0.808202
 H        -1.102530         2.524596        -0.034493
 H        -0.154411         2.729997         2.368380
 H        -1.752544         3.566728         2.236401
 H        -2.817977        -0.247366         2.988901
 H         0.035819         0.254209         2.936302
 H        -0.704400        -1.272407         2.004760
