19
Iteration:  2961
 O         0.652021         0.503877         0.144128
 C        -0.562799         0.340526         0.767098
 C        -1.911118        -0.074926         0.040603
 C        -2.531028         0.911761         1.010276
 C        -1.197507         1.740512         0.884359
 C        -0.998054         2.485328         2.198149
 O        -1.933983         1.811724         3.098330
 C        -2.119904         0.517370         2.486162
 C        -0.801780        -0.251462         2.124922
 H         1.155410        -0.261335         0.103524
 H        -1.973126         0.310101        -0.974412
 H        -2.377108        -1.088318         0.103268
 H        -3.542052         1.386967         0.934889
 H        -0.877164         2.375090        -0.031571
 H         0.103187         2.536859         2.563261
 H        -1.285713         3.493260         2.131317
 H        -2.863996        -0.068248         3.065248
 H        -0.262265         0.034366         3.037937
 H        -0.996475        -1.279346         2.059001
