19
Iteration:  4911
 O         0.679363         0.368734         0.059374
 C        -0.538617         0.406845         0.722173
 C        -1.816902        -0.088901         0.028664
 C        -2.498738         0.973506         1.014856
 C        -1.191971         1.790716         0.902691
 C        -1.033809         2.404267         2.249242
 O        -1.994462         1.799419         3.130252
 C        -2.214352         0.553958         2.458062
 C        -0.807394        -0.170677         2.234172
 H         0.772297        -0.504493        -0.407214
 H        -1.749063         0.281012        -1.031919
 H        -2.175552        -1.119987         0.224686
 H        -3.452636         1.430046         0.793655
 H        -1.158643         2.483494         0.061846
 H         0.060119         2.359059         2.572896
 H        -1.320866         3.468472         2.301180
 H        -2.935187        -0.011956         3.047990
 H        -0.014895         0.290859         2.765681
 H        -0.662059        -1.287027         2.331056
