19
Iteration:  2308
 O         0.665520         0.208618         0.197932
 C        -0.590556         0.423403         0.701666
 C        -1.929841         0.003951        -0.032156
 C        -2.502981         0.859594         1.028609
 C        -1.298534         1.874226         0.854171
 C        -1.102529         2.591779         2.227070
 O        -1.891865         1.771036         3.113789
 C        -2.067721         0.501565         2.528619
 C        -0.711160        -0.208838         2.093787
 H         1.339231         0.371148         0.821934
 H        -2.006410         0.344879        -1.025750
 H        -2.306765        -0.984962        -0.019081
 H        -3.586369         1.339997         1.003462
 H        -1.338828         2.406403        -0.214818
 H        -0.045022         2.549842         2.462662
 H        -1.418623         3.693581         2.394427
 H        -2.804928        -0.069505         3.149139
 H         0.068164        -0.046138         2.788278
 H        -0.735786        -1.320498         1.841199
