19
Iteration:  3630charge 0 multiplicity 1
 O         0.638017         0.309838         0.075857
 C        -0.591928         0.351629         0.703841
 C        -1.841110        -0.146281        -0.054176
 C        -2.464188         0.929917         1.052601
 C        -1.215172         1.852776         0.867465
 C        -1.112994         2.619577         2.210872
 O        -1.919608         1.817753         3.190061
 C        -2.091796         0.528346         2.494879
 C        -0.831332        -0.263155         2.191173
 H         1.317332         0.299509         0.667761
 H        -1.922627         0.322010        -1.037005
 H        -2.212612        -1.248675         0.002629
 H        -3.369717         1.423972         0.843694
 H        -1.168426         2.378972        -0.120990
 H        -0.070072         2.632353         2.620823
 H        -1.444466         3.621971         2.208281
 H        -2.930532        -0.012430         2.940236
 H        -0.008002        -0.009101         2.848893
 H        -0.802338        -1.412130         2.180953
