19
Iteration:  2368
 O         0.632766         0.286124         0.041187
 C        -0.504049         0.348510         0.806682
 C        -1.943599        -0.127637         0.084380
 C        -2.512441         1.065069         1.036299
 C        -1.187507         1.808396         0.869265
 C        -1.187009         2.628716         2.220627
 O        -1.879197         1.723555         3.104950
 C        -2.108157         0.521950         2.403655
 C        -0.707348        -0.267310         2.128325
 H         1.343256         0.389347         0.646589
 H        -1.918483         0.175278        -1.019017
 H        -2.318317        -1.128761         0.398787
 H        -3.397248         1.601312         1.037827
 H        -0.954189         2.456362         0.101474
 H        -0.236546         2.956551         2.662648
 H        -1.934758         3.482877         2.292121
 H        -2.907255         0.004584         2.929252
 H        -0.087654         0.015866         3.077995
 H        -0.739392        -1.335124         1.944920
