19
Iteration:  4179charge 0 multiplicity 1
 O         0.757534         0.239513         0.250386
 C        -0.531182         0.412989         0.715662
 C        -1.984374         0.022401         0.010337
 C        -2.546775         1.007717         0.952295
 C        -1.206536         1.775572         0.941543
 C        -1.116516         2.463150         2.265441
 O        -1.859859         1.709156         3.187067
 C        -2.162500         0.560203         2.441170
 C        -0.775793        -0.224732         2.001683
 H         1.085987         1.048398        -0.323952
 H        -1.986201         0.393042        -1.002974
 H        -2.357323        -1.026815         0.051550
 H        -3.510965         1.349005         0.623642
 H        -1.094587         2.535163         0.054762
 H        -0.059948         2.559842         2.554804
 H        -1.611419         3.595138         2.308078
 H        -2.868847         0.006387         3.021680
 H         0.072132        -0.051737         2.752584
 H        -1.038653        -1.293641         2.042915
