19
Iteration:   203charge 0 multiplicity 1
 O         0.781615         0.202363         0.240884
 C        -0.578218         0.444476         0.729752
 C        -1.865946         0.016918        -0.088954
 C        -2.636336         0.912491         0.955896
 C        -1.190417         1.809285         0.956612
 C        -0.990864         2.534079         2.263801
 O        -1.768290         1.735914         3.180076
 C        -2.236713         0.534637         2.419511
 C        -0.981937        -0.201031         2.042061
 H         1.219749         1.031758         0.219845
 H        -2.063279         0.430659        -1.102814
 H        -2.048819        -1.094079        -0.183484
 H        -3.680391         1.324042         0.828532
 H        -1.036152         2.488723         0.072056
 H         0.056339         2.646117         2.716167
 H        -1.318242         3.514703         2.349832
 H        -3.011231         0.100364         3.038966
 H        -0.288789        -0.260075         2.898195
 H        -1.166844        -1.302316         2.096895
