19
Iteration:   110charge 0 multiplicity 1
 O         0.670423         0.116098         0.203705
 C        -0.575692         0.445531         0.725196
 C        -1.844447         0.154159        -0.041735
 C        -2.506378         1.017606         1.038776
 C        -1.171474         1.865626         1.040947
 C        -1.067430         2.532877         2.361011
 O        -2.000603         1.759173         3.057849
 C        -2.175929         0.446197         2.385037
 C        -0.714264        -0.242901         2.051455
 H         0.491083        -0.608049        -0.528543
 H        -1.835019         0.518243        -1.040946
 H        -2.151290        -0.870407        -0.027597
 H        -3.443815         1.467663         0.822116
 H        -1.089340         2.504504         0.190821
 H        -0.057563         2.588119         2.721482
 H        -1.387808         3.677087         2.296188
 H        -2.924668        -0.123688         2.938031
 H         0.067537         0.018374         2.751266
 H        -0.616356        -1.296604         1.981241
