19
Iteration:  1471
 O         0.709071         0.235847         0.086188
 C        -0.593913         0.462549         0.668206
 C        -1.902904        -0.008307        -0.094055
 C        -2.507722         1.012820         0.956280
 C        -1.253267         1.858178         0.916530
 C        -1.041594         2.489619         2.345094
 O        -1.942642         1.730921         3.212632
 C        -2.139172         0.525490         2.461391
 C        -0.796068        -0.234602         2.127228
 H         1.370843         0.114689         0.864012
 H        -2.066189         0.292315        -1.206869
 H        -1.989858        -1.106788        -0.109253
 H        -3.590708         1.365174         0.917065
 H        -1.025297         2.345524        -0.057851
 H         0.024453         2.382174         2.627303
 H        -1.400557         3.549587         2.544196
 H        -2.959639        -0.006719         2.988903
 H        -0.050486         0.162661         2.933536
 H        -0.660021        -1.325061         2.156508
