19
Iteration:  2294
 O         0.648889         0.281931         0.115751
 C        -0.622059         0.431784         0.729619
 C        -1.927119        -0.126688         0.033698
 C        -2.525979         1.012083         1.044456
 C        -1.225948         1.816068         0.882329
 C        -1.058341         2.516673         2.226251
 O        -1.921498         1.772218         3.133507
 C        -2.060570         0.486185         2.402970
 C        -0.745359        -0.177479         2.111403
 H         1.256587         0.467297         0.971590
 H        -2.078848         0.223415        -1.043126
 H        -2.121776        -1.278009         0.036606
 H        -3.543426         1.367963         0.906085
 H        -1.098019         2.554339         0.086434
 H        -0.022549         2.640369         2.750597
 H        -1.453178         3.496506         2.161205
 H        -2.752487        -0.104162         3.022720
 H         0.097756         0.074829         2.727204
 H        -0.837212        -1.302917         2.228554
