19
Iteration:  2233
 O         0.668747         0.160155         0.078633
 C        -0.575503         0.426887         0.732140
 C        -1.928155        -0.014934         0.007242
 C        -2.507287         0.945985         1.050102
 C        -1.215721         1.817397         0.918402
 C        -1.117688         2.592601         2.272596
 O        -1.960622         1.797691         3.122202
 C        -2.107746         0.503295         2.504942
 C        -0.689359        -0.228775         2.084558
 H         1.469491         0.402799         0.598754
 H        -1.932568         0.492024        -0.901675
 H        -2.165815        -1.041922        -0.045871
 H        -3.518465         1.432983         0.778879
 H        -1.258014         2.440899        -0.045249
 H        -0.090548         2.641598         2.589977
 H        -1.602523         3.644878         2.260940
 H        -2.790642        -0.183265         3.018413
 H         0.111845         0.147269         2.722165
 H        -0.755086        -1.307910         1.980782
