19
Iteration:  2171charge 0 multiplicity 1
 O         0.613494         0.330042         0.035630
 C        -0.507868         0.397602         0.806545
 C        -1.820714        -0.024491         0.085190
 C        -2.493097         0.939800         0.982378
 C        -1.269690         1.861266         0.880710
 C        -1.112204         2.602933         2.179104
 O        -1.815782         1.719456         3.135732
 C        -2.116490         0.515231         2.473809
 C        -0.923163        -0.275977         2.188169
 H         1.393956         0.127307         0.495584
 H        -1.793994         0.240798        -1.076194
 H        -2.064648        -1.207950         0.092508
 H        -3.482472         1.290067         0.804049
 H        -1.183779         2.268542        -0.094637
 H         0.012296         2.693939         2.440496
 H        -1.547491         3.516249         2.375576
 H        -2.913680         0.064768         3.074015
 H        -0.029727        -0.119149         2.916461
 H        -1.132166        -1.349153         2.088193
