19
Iteration:   370
 O         0.577773         0.276101         0.170921
 C        -0.536299         0.400136         0.872981
 C        -1.837939         0.037478         0.032531
 C        -2.511473         1.052351         0.887424
 C        -1.205804         1.882017         0.899284
 C        -1.084517         2.519042         2.291177
 O        -1.786445         1.658844         3.116663
 C        -2.178865         0.565182         2.379253
 C        -0.899537        -0.288961         2.095735
 H         1.341564        -0.102304         0.792378
 H        -1.671533         0.570036        -0.910013
 H        -2.192663        -1.038914        -0.172019
 H        -3.517142         1.416087         0.647120
 H        -0.872357         2.395330         0.004867
 H         0.064897         2.481446         2.598580
 H        -1.492108         3.592579         2.230700
 H        -2.926969        -0.063581         2.945806
 H        -0.186125        -0.342265         2.947253
 H        -1.054417        -1.362542         1.825244
