19
Iteration:  4690
 O         0.761367         0.223492         0.245545
 C        -0.602188         0.415195         0.780043
 C        -1.907426         0.079098        -0.035894
 C        -2.535257         1.071185         1.025033
 C        -1.201147         1.856167         0.949513
 C        -1.193341         2.573808         2.248650
 O        -1.746569         1.676709         3.154553
 C        -2.191009         0.466038         2.416333
 C        -0.804376        -0.335911         2.063834
 H         0.638245         0.465270        -0.763588
 H        -1.796879         0.597792        -0.977558
 H        -2.266790        -1.000284        -0.195463
 H        -3.532321         1.472422         0.852890
 H        -1.039327         2.465907        -0.017244
 H        -0.172077         2.896595         2.513815
 H        -1.812621         3.415175         2.096797
 H        -2.909149        -0.175437         3.015469
 H        -0.126707        -0.166298         2.934505
 H        -0.887844        -1.377296         1.793903
