19
Iteration:   175charge 0 multiplicity 1
 O         0.660664         0.257714         0.266508
 C        -0.587544         0.348277         0.765999
 C        -1.932535         0.090500        -0.033066
 C        -2.435663         1.063190         1.014658
 C        -1.127234         1.861957         0.903175
 C        -1.050570         2.467567         2.182418
 O        -1.945315         1.753370         3.092194
 C        -2.079534         0.476386         2.414777
 C        -0.862159        -0.371771         2.130333
 H         0.972170         1.212037        -0.052305
 H        -2.002075         0.494675        -1.018672
 H        -2.339332        -0.974090        -0.021491
 H        -3.396484         1.494128         1.057168
 H        -0.912386         2.447351         0.045957
 H        -0.101564         2.451357         2.667998
 H        -1.348344         3.645087         2.355399
 H        -3.001998         0.038609         2.805625
 H        -0.034368        -0.313775         2.837569
 H        -1.271712        -1.403816         2.058146
