19
Iteration:  2210charge 0 multiplicity 1
 O         0.766003         0.120410         0.146295
 C        -0.582677         0.377377         0.676788
 C        -1.947641         0.032032        -0.056767
 C        -2.509416         1.001162         1.071077
 C        -1.288705         1.838782         0.851077
 C        -1.175859         2.567897         2.218668
 O        -1.828798         1.690240         3.196941
 C        -2.087656         0.514980         2.464623
 C        -0.767296        -0.123010         2.115372
 H         1.376743         0.545712         0.793654
 H        -2.098435         0.392730        -0.995369
 H        -2.315737        -0.886525         0.150894
 H        -3.642081         1.247328         0.910298
 H        -1.268871         2.522096        -0.101940
 H        -0.191143         2.698377         2.569934
 H        -1.734232         3.606912         2.167267
 H        -2.743732        -0.232378         2.977989
 H        -0.052893         0.340260         2.737343
 H        -0.903018        -1.215858         2.217168
