19
Iteration:  1993
 O         0.693214         0.369563         0.132447
 C        -0.566549         0.357616         0.701520
 C        -1.983114         0.019230         0.104640
 C        -2.492130         0.938657         1.045845
 C        -1.235720         1.825705         0.855288
 C        -1.051923         2.523557         2.156948
 O        -1.933912         1.772719         3.098803
 C        -2.111060         0.439051         2.457002
 C        -0.791214        -0.194913         2.185599
 H         1.217221        -0.273580         0.476509
 H        -2.076918         0.361413        -0.891296
 H        -2.138334        -1.136247         0.051955
 H        -3.427267         1.505290         1.090659
 H        -1.074574         2.409612        -0.089180
 H         0.016699         2.440068         2.539967
 H        -1.315108         3.487365         2.222451
 H        -2.858792        -0.241231         2.865407
 H         0.140628         0.038940         2.697689
 H        -0.752798        -1.258468         2.262540
