19
Iteration:  1994charge 0 multiplicity 1
 O         0.692667         0.369193         0.136724
 C        -0.562407         0.362975         0.696064
 C        -1.979839         0.018217         0.103987
 C        -2.497530         0.931330         1.042158
 C        -1.240981         1.823612         0.861075
 C        -1.046717         2.518829         2.158088
 O        -1.931227         1.773238         3.098490
 C        -2.112471         0.443993         2.454619
 C        -0.798688        -0.194031         2.184529
 H         1.189477        -0.296139         0.489393
 H        -2.094896         0.357283        -0.906378
 H        -2.102407        -1.097846         0.044905
 H        -3.456571         1.473896         1.101134
 H        -1.090056         2.425381        -0.093794
 H         0.037638         2.452262         2.514688
 H        -1.283992         3.523635         2.235478
 H        -2.846100        -0.250151         2.870327
 H         0.178066         0.055428         2.710459
 H        -0.751853        -1.265574         2.272901
