19
Iteration:   674
 O         0.690938         0.264978         0.150860
 C        -0.600867         0.497595         0.774616
 C        -1.861456         0.018412        -0.062242
 C        -2.534566         0.948245         1.008299
 C        -1.244806         1.911218         0.896181
 C        -0.995533         2.542975         2.304029
 O        -1.825017         1.660750         3.083707
 C        -2.199270         0.552768         2.407348
 C        -0.863358        -0.290147         2.133715
 H         1.071476        -0.290507         0.964465
 H        -1.766717         0.579601        -0.987760
 H        -2.134820        -1.068062        -0.066392
 H        -3.592341         1.442348         0.971253
 H        -1.247262         2.638492         0.028003
 H         0.095775         2.386014         2.559119
 H        -1.280389         3.498035         2.356577
 H        -2.970967         0.006290         3.084217
 H        -0.171086        -0.347969         2.978673
 H        -1.153295        -1.316763         1.820887
