19
Iteration:  1214charge 0 multiplicity 1
 O         0.670806         0.290131        -0.008666
 C        -0.629363         0.390302         0.727892
 C        -1.845321        -0.008563         0.010850
 C        -2.451426         1.041960         0.991678
 C        -1.094614         1.819628         0.925925
 C        -1.063284         2.463786         2.274311
 O        -1.953300         1.742829         3.228411
 C        -2.227641         0.523447         2.430094
 C        -0.831155        -0.269125         2.128754
 H         1.286569         0.319409         0.640652
 H        -1.886474         0.376824        -1.006422
 H        -2.129670        -1.060090         0.026660
 H        -3.453890         1.553302         0.892714
 H        -1.026197         2.557209         0.060271
 H        -0.033335         2.561832         2.727494
 H        -1.436909         3.450687         2.297508
 H        -3.015384        -0.105489         2.760577
 H        -0.215078         0.128122         2.899372
 H        -0.754858        -1.339317         2.317090
