19
Iteration:  1081
 O         0.693291         0.295102         0.172968
 C        -0.572547         0.403888         0.725455
 C        -1.879934         0.003870        -0.071035
 C        -2.574067         1.046781         0.991542
 C        -1.195765         1.799677         0.954016
 C        -1.093529         2.522249         2.292428
 O        -1.839228         1.685876         3.144085
 C        -2.180836         0.524584         2.454685
 C        -0.807569        -0.245814         2.043548
 H         1.139496        -0.319511         0.654075
 H        -1.733458         0.417030        -1.118289
 H        -2.222260        -0.970338        -0.135342
 H        -3.462314         1.744497         1.017124
 H        -1.256556         2.460010         0.030864
 H        -0.046514         2.545167         2.704538
 H        -1.404762         3.659866         2.183649
 H        -2.902120        -0.100007         3.020223
 H        -0.055053         0.013759         2.803744
 H        -0.965548        -1.300570         2.088815
