19
Iteration:  1647
 O         0.719388         0.217528         0.133307
 C        -0.612497         0.425859         0.662817
 C        -1.791791         0.029964        -0.078721
 C        -2.527597         0.906078         0.998229
 C        -1.229147         1.869880         0.932244
 C        -1.118882         2.538406         2.280680
 O        -1.874650         1.691261         3.254079
 C        -2.192188         0.571541         2.446759
 C        -0.798583        -0.139390         2.139512
 H         0.591772        -0.591351        -0.466328
 H        -1.853244         0.466653        -1.199111
 H        -1.967440        -1.058456        -0.165866
 H        -3.483102         1.265638         0.778745
 H        -1.216780         2.633535         0.158598
 H        -0.004562         2.451462         2.659145
 H        -1.378243         3.539370         2.430131
 H        -2.811741        -0.067519         2.993064
 H        -0.102373         0.074832         2.983964
 H        -0.935257        -1.171300         2.069313
