19
Iteration:   312
 O         0.675119         0.186274         0.228929
 C        -0.603138         0.455003         0.745438
 C        -1.873729         0.023776        -0.037928
 C        -2.532035         1.152370         0.977293
 C        -1.177663         1.893806         0.891780
 C        -1.038505         2.492388         2.222795
 O        -1.905571         1.650783         3.174100
 C        -2.177836         0.439872         2.420345
 C        -0.782286        -0.203096         2.039995
 H         1.198302        -0.136750         0.909317
 H        -1.997450         0.171412        -1.085834
 H        -2.195985        -1.029687         0.187718
 H        -3.503007         1.650801         0.895413
 H        -1.121312         2.497988        -0.021275
 H         0.017461         2.525123         2.623253
 H        -1.393472         3.642725         2.318407
 H        -2.973764        -0.134434         2.779180
 H        -0.186273         0.184000         2.871483
 H        -0.830706        -1.306711         1.967083
