19
Iteration:  4165
 O         0.733660         0.196303         0.274577
 C        -0.616260         0.404473         0.654877
 C        -1.889733        -0.047197        -0.107377
 C        -2.496564         1.032372         0.963717
 C        -1.203662         1.869529         0.865771
 C        -1.145340         2.592879         2.304930
 O        -1.839399         1.687912         3.260658
 C        -2.094815         0.473449         2.457985
 C        -0.857079        -0.225430         2.082603
 H         0.846846         0.728838        -0.537583
 H        -1.949126         0.332672        -1.095819
 H        -2.202205        -1.092718         0.007027
 H        -3.476747         1.658414         0.960422
 H        -1.084937         2.555846        -0.071400
 H        -0.165734         2.883377         2.725615
 H        -1.713751         3.548772         2.160464
 H        -2.847420        -0.122341         3.035342
 H        -0.032704         0.009271         2.756765
 H        -0.930844        -1.350607         1.848791
