19
Iteration:  4246charge 0 multiplicity 1
 O         0.808121         0.248545         0.197368
 C        -0.590863         0.430012         0.678113
 C        -1.950999         0.022136        -0.027804
 C        -2.438141         1.008701         1.012722
 C        -1.195297         1.877495         0.934580
 C        -1.100139         2.529042         2.318061
 O        -1.917413         1.674098         3.136100
 C        -2.182126         0.455778         2.461225
 C        -0.837203        -0.189263         2.097149
 H         0.788925         0.210116        -0.724681
 H        -2.139714         0.327676        -1.054918
 H        -2.394009        -0.960121         0.104395
 H        -3.354820         1.487061         0.791739
 H        -1.296486         2.465026        -0.012233
 H        -0.137879         2.394524         2.761119
 H        -1.371203         3.653834         2.177701
 H        -2.823700        -0.191495         3.065166
 H        -0.064194         0.017357         2.895875
 H        -0.810634        -1.265497         1.990777
