19
Iteration:  1700charge 0 multiplicity 1
 O         0.709359         0.190394         0.161104
 C        -0.641447         0.418485         0.743445
 C        -1.885362        -0.024779        -0.010192
 C        -2.500278         1.038924         0.925879
 C        -1.214470         1.854682         0.889005
 C        -1.060628         2.571044         2.272893
 O        -1.875343         1.715300         3.224535
 C        -2.173078         0.452692         2.452977
 C        -0.795451        -0.228673         2.118849
 H         0.758643         0.982225        -0.415244
 H        -1.863839         0.309623        -1.122938
 H        -1.993809        -1.125707         0.131350
 H        -3.480890         1.425397         0.773278
 H        -1.216713         2.449626        -0.020653
 H         0.037827         2.776474         2.586634
 H        -1.571150         3.512384         2.367831
 H        -2.867933        -0.143996         2.959391
 H        -0.057025         0.116150         2.900662
 H        -0.735547        -1.280686         1.973990
