19
Iteration:   842charge 0 multiplicity 1
 O         0.712092         0.185154         0.066094
 C        -0.599776         0.447825         0.719000
 C        -1.875200         0.062850        -0.061510
 C        -2.485425         1.015992         0.944867
 C        -1.179655         1.843670         0.944959
 C        -1.092093         2.491142         2.245876
 O        -1.898851         1.687239         3.256117
 C        -2.154070         0.519441         2.439504
 C        -0.890827        -0.165708         2.121802
 H         1.532543         0.057243         0.736944
 H        -2.137933         0.488776        -1.128337
 H        -2.092901        -1.004093         0.087711
 H        -3.453219         1.417120         0.887495
 H        -0.987730         2.263637        -0.038437
 H        -0.005991         2.518484         2.695465
 H        -1.394097         3.466874         2.316564
 H        -2.893839         0.055115         3.055994
 H        -0.101157        -0.020018         2.901662
 H        -1.050887        -1.275928         2.083137
