19
Iteration:  3010
 O         0.709588         0.227208         0.216475
 C        -0.618283         0.496953         0.718047
 C        -1.823871        -0.080834         0.015489
 C        -2.549550         0.919323         0.962070
 C        -1.245903         1.842442         0.889341
 C        -1.130327         2.564539         2.235619
 O        -1.833749         1.757891         3.257641
 C        -2.155038         0.492221         2.395100
 C        -0.751606        -0.114343         2.073487
 H         0.453031        -0.663140        -0.300630
 H        -1.954892         0.262501        -1.065922
 H        -1.809626        -1.190902         0.226531
 H        -3.582750         1.286908         0.856155
 H        -1.351973         2.495204         0.044463
 H        -0.061178         2.768186         2.432930
 H        -1.595422         3.646300         2.184611
 H        -2.914741        -0.189411         2.880836
 H         0.086127         0.184149         2.747704
 H        -0.876840        -1.290637         1.958922
