19
Iteration:  2417charge 0 multiplicity 1
 O         0.596999         0.172069         0.112163
 C        -0.599177         0.505002         0.778092
 C        -1.815683        -0.045100        -0.029325
 C        -2.552205         0.860467         0.959408
 C        -1.340423         1.853152         0.877286
 C        -1.025464         2.540952         2.207633
 O        -1.907325         1.759413         3.157178
 C        -2.086926         0.465354         2.465303
 C        -0.695202        -0.085438         2.180481
 H         1.339874         0.527745         0.725584
 H        -2.027701         0.422365        -0.950203
 H        -2.091401        -1.092993         0.084046
 H        -3.606421         1.222992         0.606385
 H        -1.466665         2.587496         0.006694
 H        -0.040868         2.225056         2.663937
 H        -1.152375         3.538418         2.453117
 H        -2.911760        -0.025732         2.976922
 H         0.059766         0.265002         2.764787
 H        -0.656235        -1.201374         2.100666
