19
Iteration:  1221charge 0 multiplicity 1
 O         0.691057         0.265234         0.023106
 C        -0.576005         0.444206         0.736236
 C        -1.901466        -0.057136        -0.050914
 C        -2.446378         1.043329         1.063466
 C        -1.140864         1.829440         0.914126
 C        -1.006209         2.532903         2.258620
 O        -1.966980         1.696646         3.208200
 C        -2.193047         0.471170         2.410445
 C        -0.862555        -0.219321         2.138831
 H         1.397984         0.238182         0.746294
 H        -2.057482         0.544674        -1.083588
 H        -2.292356        -1.073668        -0.069698
 H        -3.447842         1.521925         1.031539
 H        -0.940975         2.465547         0.009496
 H        -0.042949         2.672152         2.831657
 H        -1.482066         3.533104         2.199660
 H        -3.041231        -0.123649         2.873349
 H        -0.182892         0.108082         2.999770
 H        -0.873705        -1.306481         2.116681
