19
Iteration:  3491
 O         0.834114         0.306846         0.115937
 C        -0.541138         0.383126         0.764062
 C        -2.002336        -0.080770        -0.034282
 C        -2.583625         0.934836         1.021708
 C        -1.264209         1.800755         0.873739
 C        -1.121722         2.576682         2.250166
 O        -1.898385         1.823375         3.094269
 C        -2.122690         0.450316         2.501620
 C        -0.758416        -0.153140         2.152279
 H         1.233657        -0.662945         0.356056
 H        -1.963152         0.209567        -1.024950
 H        -2.339582        -1.074995         0.160249
 H        -3.546445         1.372284         0.882543
 H        -1.263979         2.384188        -0.205323
 H        -0.052323         2.674538         2.515431
 H        -1.630771         3.676432         2.355912
 H        -2.779522        -0.032977         3.191880
 H        -0.049922         0.183731         2.874848
 H        -0.742209        -1.239799         2.186592
