19
Iteration:   922
 O         0.625239         0.279867         0.103814
 C        -0.562591         0.333795         0.735363
 C        -1.905390         0.048850        -0.066994
 C        -2.489685         1.030326         0.928366
 C        -1.176342         1.867913         1.003641
 C        -1.023047         2.496921         2.266593
 O        -1.901632         1.703655         3.176098
 C        -2.129467         0.501172         2.387615
 C        -0.875757        -0.231588         2.135482
 H         1.434182         0.216430         0.727035
 H        -1.993505         0.216208        -1.115316
 H        -2.069354        -1.108320         0.119309
 H        -3.507756         1.570897         1.063639
 H        -0.952706         2.568442         0.116672
 H         0.113201         2.511045         2.697074
 H        -1.451458         3.518102         2.258890
 H        -2.897042        -0.040042         2.927592
 H        -0.144429         0.097201         2.884036
 H        -1.061151        -1.346952         2.166854
