19
Iteration:  4998charge 0 multiplicity 1
 O         0.703076         0.318958         0.153203
 C        -0.559866         0.448394         0.791190
 C        -1.857441        -0.104060         0.027373
 C        -2.504082         0.965024         1.047418
 C        -1.211802         1.823414         0.863271
 C        -1.189234         2.678653         2.113479
 O        -1.825206         1.740355         3.185710
 C        -2.122247         0.506076         2.460151
 C        -0.841377        -0.284197         2.145033
 H         0.978037        -0.570291         0.130954
 H        -1.958088         0.143698        -1.004291
 H        -2.088238        -1.078090         0.094954
 H        -3.459838         1.417711         0.845123
 H        -1.092261         2.344210        -0.098774
 H        -0.087157         2.938517         2.294078
 H        -1.823701         3.643657         2.026851
 H        -2.792757        -0.105995         3.039434
 H        -0.078467        -0.181060         2.887484
 H        -1.101356        -1.384583         2.004109
