19
Iteration:  3730
 O         0.713650         0.296096         0.154758
 C        -0.542288         0.361252         0.751891
 C        -1.929615        -0.042574        -0.024557
 C        -2.508993         0.974333         0.961761
 C        -1.221266         1.888938         0.889864
 C        -1.189391         2.565864         2.233230
 O        -1.867964         1.755390         3.180989
 C        -2.070899         0.564559         2.466230
 C        -0.775555        -0.278567         2.152876
 H         0.884356        -0.628519        -0.105097
 H        -1.870006         0.408763        -1.041108
 H        -2.202663        -1.193998        -0.100631
 H        -3.514265         1.365476         0.990463
 H        -0.973756         2.507139        -0.092321
 H        -0.160476         2.897397         2.616300
 H        -1.753992         3.491031         2.075832
 H        -2.789469         0.039014         3.068526
 H        -0.043814        -0.226129         2.979854
 H        -1.141345        -1.374121         2.076397
