19
Iteration:  1664charge 0 multiplicity 1
 O         0.765197         0.204364         0.116853
 C        -0.509817         0.447073         0.734115
 C        -1.871704         0.047461        -0.009729
 C        -2.512574         1.036036         1.039873
 C        -1.196766         1.838024         0.907019
 C        -1.087610         2.582329         2.247502
 O        -1.963876         1.691164         3.216148
 C        -2.172500         0.451810         2.489052
 C        -0.803716        -0.222602         2.093256
 H         0.619417        -0.225285        -0.734771
 H        -1.985549         0.439192        -0.959184
 H        -2.167117        -1.021011        -0.023277
 H        -3.521134         1.581975         0.924533
 H        -1.198989         2.406987        -0.041867
 H        -0.094875         2.735367         2.630680
 H        -1.703817         3.516336         2.067438
 H        -3.016754        -0.115330         3.003664
 H        -0.007011         0.073888         2.777473
 H        -0.778210        -1.374124         2.035467
