19
Iteration:  1132
 O         0.655388         0.252469         0.149703
 C        -0.599571         0.365485         0.711354
 C        -1.846143         0.075199        -0.070836
 C        -2.466969         1.024497         0.988856
 C        -1.225375         1.907765         0.939549
 C        -1.106314         2.588183         2.293002
 O        -1.801398         1.671033         3.142486
 C        -2.184735         0.482370         2.436951
 C        -0.837877        -0.317862         2.113779
 H         1.275383         0.072882         0.883341
 H        -2.134232         0.588103        -1.035079
 H        -2.292076        -0.975860        -0.024978
 H        -3.444348         1.354908         0.781481
 H        -1.089922         2.427162         0.038851
 H        -0.027656         2.729255         2.614434
 H        -1.649328         3.514385         2.315928
 H        -3.009305        -0.118245         2.895622
 H        -0.083286         0.073923         2.848387
 H        -0.897159        -1.443211         2.063750
