19
Iteration:  1530charge 0 multiplicity 1
 O         0.714651         0.124568         0.055204
 C        -0.571121         0.345786         0.668558
 C        -1.916519         0.024747        -0.039826
 C        -2.448133         1.051360         0.971371
 C        -1.217432         1.866347         0.975284
 C        -1.194118         2.525640         2.361971
 O        -1.907988         1.717140         3.249370
 C        -2.082566         0.551033         2.384747
 C        -0.797554        -0.201896         2.064741
 H         1.281582         0.629148         0.733334
 H        -1.871377         0.455247        -1.017765
 H        -2.315200        -0.993426        -0.079018
 H        -3.471609         1.294787         0.808038
 H        -1.015627         2.486892         0.088227
 H        -0.165579         2.741405         2.685072
 H        -1.745780         3.591442         2.407666
 H        -2.883665         0.036519         2.906231
 H        -0.077827         0.167329         2.851118
 H        -0.806809        -1.333114         2.109790
