19
Iteration:  3266
 O         0.720870         0.336820         0.144764
 C        -0.595330         0.427485         0.720691
 C        -1.892087        -0.089621         0.053397
 C        -2.580395         1.000076         1.058482
 C        -1.271493         1.800876         0.889172
 C        -1.011326         2.501734         2.165548
 O        -1.847489         1.692138         3.096805
 C        -2.190516         0.530981         2.409355
 C        -0.802500        -0.165075         2.151726
 H         1.331778         0.224692         0.936883
 H        -1.957465         0.045058        -1.053175
 H        -2.103432        -1.145861         0.326625
 H        -3.566764         1.373779         0.850917
 H        -1.262154         2.281218         0.030430
 H        -0.023605         2.680174         2.540077
 H        -1.517581         3.530467         2.148660
 H        -2.896166        -0.009267         2.989980
 H        -0.090217         0.262841         2.944482
 H        -0.660617        -1.273548         2.044779
