19
Iteration:  2667charge 0 multiplicity 1
 O         0.653324         0.439214         0.071810
 C        -0.544819         0.386751         0.754082
 C        -1.936697        -0.119364         0.102129
 C        -2.509794         0.982614         1.058055
 C        -1.189172         1.769758         0.939465
 C        -1.050179         2.568610         2.192015
 O        -1.927722         1.739687         3.094137
 C        -2.144932         0.502273         2.421658
 C        -0.756668        -0.221021         2.102662
 H         1.224918        -0.266787         0.466747
 H        -1.859120         0.102186        -0.941634
 H        -2.370786        -1.074436         0.494909
 H        -3.490237         1.411292         0.725602
 H        -1.067815         2.271223        -0.018517
 H        -0.056927         2.694136         2.571149
 H        -1.628653         3.583450         2.166801
 H        -2.818986        -0.053603         3.005583
 H        -0.073146        -0.045471         2.948814
 H        -0.778590        -1.402019         2.090449
