19
Iteration:   426charge 0 multiplicity 1
 O         0.573060         0.074054         0.079953
 C        -0.548649         0.427479         0.728516
 C        -1.833317         0.111074        -0.075594
 C        -2.476707         1.014218         0.954193
 C        -1.217531         1.947620         0.966619
 C        -1.035062         2.542389         2.377571
 O        -2.027433         1.756899         3.094052
 C        -2.091389         0.463546         2.378535
 C        -0.773566        -0.254243         2.218238
 H         1.261002         0.315358         0.655464
 H        -1.700916         0.502858        -1.149277
 H        -2.039375        -0.966827        -0.103109
 H        -3.560900         1.304253         0.973549
 H        -1.076976         2.536397         0.041168
 H         0.046174         2.386544         2.875627
 H        -1.248927         3.637978         2.417341
 H        -2.854697        -0.222674         2.928870
 H         0.073515         0.040686         2.871157
 H        -0.820847        -1.348940         2.133243
