19
Iteration:  3457
 O         0.639993         0.220489         0.152772
 C        -0.572529         0.466112         0.800200
 C        -1.800529        -0.049061        -0.061809
 C        -2.511039         0.917602         0.983763
 C        -1.289816         1.827726         0.839216
 C        -1.216576         2.607087         2.212978
 O        -1.788595         1.768548         3.148789
 C        -2.107636         0.472949         2.535558
 C        -0.812406        -0.172280         2.125617
 H         1.231390        -0.464120         0.619835
 H        -1.763045         0.178770        -1.073589
 H        -1.996523        -1.091593         0.097765
 H        -3.417285         1.475427         0.904755
 H        -1.178455         2.451867        -0.178682
 H        -0.227457         2.932545         2.542690
 H        -1.898059         3.580873         2.053728
 H        -2.718286        -0.039990         3.287877
 H        -0.029990         0.062528         2.825009
 H        -0.794169        -1.241884         1.881070
