19
Iteration:  2133
 O         0.668938         0.301869         0.146793
 C        -0.622487         0.387942         0.682568
 C        -1.957084        -0.063613         0.013656
 C        -2.499445         0.927468         1.002856
 C        -1.232920         1.788784         0.855964
 C        -1.042262         2.535824         2.261945
 O        -1.937813         1.750068         3.134115
 C        -2.069162         0.508448         2.477004
 C        -0.755369        -0.119922         2.089783
 H         1.311506        -0.184815         0.820408
 H        -2.146337         0.292466        -0.929732
 H        -2.306319        -1.057808         0.145444
 H        -3.470890         1.507786         0.936637
 H        -1.090867         2.530650         0.014286
 H        -0.018104         2.450248         2.618186
 H        -1.322347         3.688662         2.195923
 H        -2.699412        -0.160725         3.097828
 H         0.009201         0.238758         2.738119
 H        -0.719737        -1.205611         2.267838
