19
Iteration:  4754charge 0 multiplicity 1
 O         0.627924         0.124693         0.070923
 C        -0.613825         0.446411         0.732021
 C        -1.862607         0.021915        -0.062172
 C        -2.503084         0.962417         1.026869
 C        -1.235165         1.948052         0.883092
 C        -0.966436         2.488324         2.356587
 O        -1.989983         1.704585         3.088869
 C        -2.155354         0.434254         2.461774
 C        -0.767073        -0.125003         2.165733
 H         1.259975         0.830017         0.220505
 H        -1.697927         0.449389        -0.982637
 H        -1.983181        -0.983207        -0.121523
 H        -3.484784         1.474782         0.934519
 H        -1.141181         2.662443        -0.007161
 H        -0.006154         2.286798         2.879059
 H        -1.203867         3.522109         2.618422
 H        -2.870818        -0.140245         3.110999
 H         0.009802         0.225726         2.916764
 H        -0.751960        -1.213401         2.112076
