19
Iteration:  3800
 O         0.781441         0.232650         0.130911
 C        -0.551106         0.351746         0.665903
 C        -1.906572        -0.047044        -0.018864
 C        -2.546338         0.914329         1.035610
 C        -1.204263         1.787390         0.915005
 C        -0.991040         2.529463         2.304432
 O        -1.991413         1.816924         3.184985
 C        -2.165007         0.551472         2.436943
 C        -0.821743        -0.203049         2.125767
 H         0.778776         0.951701        -0.420044
 H        -2.004107         0.474333        -1.028151
 H        -2.195887        -1.064974        -0.092014
 H        -3.527064         1.411098         0.841695
 H        -1.118742         2.484279         0.119877
 H        -0.010315         2.465452         2.681764
 H        -1.312206         3.633186         2.298849
 H        -2.973688        -0.047228         2.920610
 H        -0.049875         0.090566         2.908389
 H        -0.887715        -1.300581         2.153134
