19
Iteration:  4204charge 0 multiplicity 1
 O         0.663620         0.319343         0.197979
 C        -0.577232         0.466820         0.756246
 C        -1.892326        -0.022932        -0.028962
 C        -2.496525         0.971216         0.991333
 C        -1.223235         1.865559         0.858055
 C        -0.935373         2.455123         2.263245
 O        -1.907656         1.731411         3.098104
 C        -2.158124         0.406775         2.451737
 C        -0.893703        -0.244713         2.159751
 H         0.875300         1.044455        -0.365217
 H        -1.603684         0.379420        -1.115417
 H        -2.198801        -1.076220         0.032569
 H        -3.461313         1.487448         0.908599
 H        -1.301792         2.467845         0.007378
 H         0.160249         2.325867         2.505525
 H        -1.239740         3.543808         2.702163
 H        -2.953381        -0.076609         3.062355
 H        -0.247456         0.127803         2.967316
 H        -0.903338        -1.306069         2.152927
