19
Iteration:  3675
 O         0.648472         0.198555         0.193378
 C        -0.594359         0.385030         0.688336
 C        -1.863756        -0.103171        -0.011800
 C        -2.475110         0.905033         0.927622
 C        -1.293590         1.874597         0.868761
 C        -1.031247         2.551367         2.268056
 O        -1.890227         1.719069         3.212049
 C        -2.154504         0.522370         2.460742
 C        -0.792130        -0.036350         2.119360
 H         0.983829         0.890696        -0.270193
 H        -1.953982         0.274778        -1.024086
 H        -2.008027        -1.279173         0.148183
 H        -3.442696         1.272995         0.804033
 H        -1.197318         2.475641        -0.185713
 H         0.078152         2.400599         2.515283
 H        -1.275878         3.602187         2.396041
 H        -2.851566        -0.020417         3.068828
 H        -0.060283         0.233737         2.897129
 H        -0.846635        -1.215548         2.326030
