19
Iteration:   966charge 0 multiplicity 1
 O         0.751438         0.278175         0.186262
 C        -0.611337         0.438298         0.625957
 C        -1.861147        -0.000543        -0.100391
 C        -2.495424         1.024629         1.007069
 C        -1.278350         1.848906         0.922269
 C        -1.037796         2.515299         2.285132
 O        -1.825491         1.739078         3.197473
 C        -2.122578         0.473739         2.421934
 C        -0.937891        -0.209324         2.124474
 H         0.856234        -0.670732         0.392524
 H        -1.880690         0.312692        -1.119645
 H        -2.210895        -1.136377        -0.083135
 H        -3.540955         1.468935         0.926860
 H        -1.231474         2.566147         0.060844
 H        -0.034441         2.567489         2.889128
 H        -1.414604         3.472681         2.453659
 H        -2.927257        -0.037775         2.955771
 H        -0.109945        -0.053741         2.818387
 H        -1.076163        -1.341455         2.138137
