19
Iteration:    82charge 0 multiplicity 1
 O         0.752675         0.349902         0.086604
 C        -0.551118         0.357123         0.739958
 C        -1.970394         0.018156        -0.082268
 C        -2.446215         1.047207         0.899002
 C        -1.079144         1.785771         0.931903
 C        -1.085800         2.490007         2.333489
 O        -1.907151         1.673122         3.214232
 C        -2.207788         0.578219         2.468704
 C        -0.891831        -0.240036         2.225805
 H         0.922756        -0.587226        -0.205891
 H        -1.676148         0.480929        -1.132583
 H        -2.584006        -0.947302        -0.181572
 H        -3.345216         1.643095         0.518740
 H        -0.915454         2.471856         0.050692
 H        -0.043175         2.800985         2.701887
 H        -1.592932         3.387148         2.221651
 H        -2.991669        -0.057501         2.970484
 H        -0.109672        -0.156223         3.053406
 H        -1.295462        -1.329397         2.009147
