19
Iteration:  2063charge 0 multiplicity 1
 O         0.692055         0.395971         0.128049
 C        -0.579690         0.317961         0.768381
 C        -1.998184        -0.031290         0.081649
 C        -2.489221         1.052402         1.020083
 C        -1.131648         1.755952         0.937671
 C        -1.172009         2.632219         2.132342
 O        -1.894796         1.765099         3.124145
 C        -2.063832         0.464280         2.451288
 C        -0.768467        -0.307491         2.116135
 H         1.075046        -0.524085         0.102513
 H        -2.024002         0.305493        -1.025130
 H        -2.385347        -1.011056         0.076469
 H        -3.463037         1.443356         0.809625
 H        -1.007666         2.249537        -0.020256
 H        -0.130791         2.855802         2.466145
 H        -1.769885         3.627317         2.066824
 H        -2.719278        -0.052126         3.171361
 H         0.056620        -0.179320         2.914238
 H        -0.844909        -1.383653         2.324059
