19
Iteration:  2273
 O         0.675514         0.318039        -0.064091
 C        -0.506261         0.406088         0.786072
 C        -1.858457        -0.111541         0.098700
 C        -2.505001         0.973651         0.954446
 C        -1.238852         1.808058         0.875455
 C        -1.071359         2.514156         2.257260
 O        -1.880583         1.705632         3.186617
 C        -2.266797         0.556314         2.438593
 C        -0.795960        -0.143129         2.206936
 H         1.465489         0.358000         0.506459
 H        -2.006341         0.114801        -0.976510
 H        -2.383243        -1.102288         0.282064
 H        -3.489165         1.433428         0.648086
 H        -1.112719         2.315291        -0.127850
 H        -0.039758         2.386922         2.726839
 H        -1.332759         3.557691         2.276880
 H        -3.021216         0.088507         3.117371
 H        -0.156693         0.210870         2.969375
 H        -0.627592        -1.275675         2.211670
