19
Iteration:  2454charge 0 multiplicity 1
 O         0.689379         0.327148         0.065300
 C        -0.545091         0.348698         0.674062
 C        -1.917680        -0.097360         0.054059
 C        -2.499575         0.937589         0.965475
 C        -1.209171         1.773164         0.928252
 C        -1.174792         2.665484         2.236232
 O        -1.824329         1.739568         3.212541
 C        -2.145336         0.564882         2.461416
 C        -0.806498        -0.264019         2.127767
 H         1.488467         0.266204         0.747406
 H        -2.159080         0.173770        -1.025070
 H        -2.241335        -1.078309         0.260997
 H        -3.395311         1.437306         0.687601
 H        -1.110628         2.378254        -0.009317
 H        -0.200697         3.005756         2.498756
 H        -1.833163         3.593618         2.010154
 H        -2.823209        -0.057165         3.055115
 H        -0.007941        -0.099589         2.938591
 H        -0.873319        -1.320005         2.032856
