19
Iteration:  1651
 O         0.734077         0.211284         0.129817
 C        -0.584838         0.440674         0.648158
 C        -1.794964         0.037071        -0.097551
 C        -2.525908         0.908353         1.042032
 C        -1.221224         1.862297         0.941650
 C        -1.100484         2.550215         2.224099
 O        -1.900541         1.663641         3.259365
 C        -2.212191         0.582790         2.461890
 C        -0.790617        -0.150752         2.140899
 H         0.555539        -0.539834        -0.531023
 H        -1.816755         0.376862        -1.023147
 H        -2.061018        -0.998230        -0.088683
 H        -3.515166         1.428756         0.791785
 H        -1.151937         2.648176         0.156461
 H        -0.199802         2.539468         2.679813
 H        -1.394570         3.646489         2.423223
 H        -2.899666        -0.117108         3.081410
 H        -0.072039         0.072509         2.921650
 H        -0.909849        -1.313996         2.044053
