19
Iteration:  3678charge 0 multiplicity 1
 O         0.662275         0.193575         0.203650
 C        -0.590908         0.369335         0.683995
 C        -1.883979        -0.087695        -0.004221
 C        -2.462304         0.875873         0.905481
 C        -1.306455         1.878391         0.859997
 C        -1.043019         2.554583         2.272538
 O        -1.880508         1.703834         3.222031
 C        -2.119995         0.541632         2.458964
 C        -0.805110        -0.025599         2.148762
 H         0.956212         0.957132        -0.494549
 H        -1.903970         0.303935        -1.043099
 H        -2.089856        -1.116256         0.134093
 H        -3.518934         1.250542         0.738725
 H        -1.173978         2.414282        -0.181525
 H        -0.037032         2.411932         2.496908
 H        -1.263217         3.685632         2.424067
 H        -2.880059        -0.028407         2.996542
 H         0.004613         0.136016         2.911431
 H        -0.957212        -1.149507         2.318549
