19
Iteration:  2574
 O         0.616176         0.268780        -0.004828
 C        -0.575292         0.393792         0.713513
 C        -1.795903        -0.097061         0.029069
 C        -2.521862         0.923622         0.952154
 C        -1.196373         1.826747         0.926070
 C        -1.111189         2.562913         2.271208
 O        -1.900164         1.807108         3.203845
 C        -2.192113         0.509888         2.468381
 C        -0.751264        -0.228749         2.152927
 H         1.253131         0.801866         0.459526
 H        -1.939568         0.306151        -1.002766
 H        -1.929461        -1.109175         0.137355
 H        -3.545742         1.151700         0.832269
 H        -0.910749         2.557060         0.107018
 H        -0.038934         2.641933         2.616433
 H        -1.513522         3.575237         2.170286
 H        -2.943322        -0.071769         3.108149
 H        -0.289207         0.003902         3.125227
 H        -0.769938        -1.258339         2.107633
