19
Iteration:  2276
 O         0.671232         0.325411        -0.035281
 C        -0.515163         0.367384         0.738112
 C        -1.869149        -0.091397         0.098940
 C        -2.517500         0.959602         0.957802
 C        -1.226221         1.809493         0.903041
 C        -1.062296         2.500582         2.262459
 O        -1.885405         1.709777         3.179120
 C        -2.252177         0.563286         2.442760
 C        -0.791029        -0.141884         2.186655
 H         1.545489         0.391216         0.580723
 H        -1.952515         0.078228        -0.913002
 H        -2.289838        -0.990320         0.397016
 H        -3.556708         1.482503         0.747619
 H        -1.074539         2.288285        -0.155199
 H        -0.074728         2.406413         2.583061
 H        -1.402556         3.606308         2.208293
 H        -3.022879         0.016225         3.054422
 H        -0.172716         0.313406         2.947273
 H        -0.667557        -1.252234         2.175859
