19
Iteration:  3104charge 0 multiplicity 1
 O         0.706250         0.406381         0.208043
 C        -0.595435         0.458656         0.726988
 C        -1.900013        -0.087156         0.088723
 C        -2.567038         0.950074         1.030708
 C        -1.272384         1.850604         0.857795
 C        -1.026039         2.431413         2.138635
 O        -1.860216         1.714420         3.084928
 C        -2.185869         0.458988         2.452527
 C        -0.799516        -0.138978         2.145674
 H         1.095440        -0.448748         0.281205
 H        -1.816671         0.193972        -0.954916
 H        -2.139338        -1.087059         0.321490
 H        -3.511953         1.411887         0.795348
 H        -1.021556         2.568731        -0.108491
 H         0.080960         2.378721         2.391398
 H        -1.255065         3.443755         2.381909
 H        -2.938070        -0.023365         3.021650
 H         0.021130         0.253292         2.715120
 H        -0.795480        -1.192184         2.186259
