19
Iteration:  2598
 O         0.720355         0.204593         0.132226
 C        -0.559384         0.396938         0.697374
 C        -1.947512        -0.007460         0.070684
 C        -2.470846         1.005032         0.981605
 C        -1.303641         1.854911         0.862515
 C        -1.179856         2.560216         2.206437
 O        -1.871812         1.666590         3.146393
 C        -2.065463         0.490587         2.453913
 C        -0.752990        -0.144553         2.087125
 H         1.470408         0.480623         0.838789
 H        -2.039660         0.303705        -0.943584
 H        -2.277237        -0.954248         0.354808
 H        -3.484616         1.313974         1.132668
 H        -1.315933         2.555768         0.059783
 H        -0.180492         2.721181         2.589139
 H        -1.749584         3.577156         2.153436
 H        -2.829922        -0.152904         3.045386
 H         0.044140         0.078709         2.921164
 H        -0.751150        -1.228078         2.077133
