19
Iteration:  3338charge 0 multiplicity 1
 O         0.612355         0.248122         0.051240
 C        -0.570389         0.356723         0.755031
 C        -1.835660        -0.110620         0.019732
 C        -2.488219         1.049667         0.954792
 C        -1.278615         1.883406         0.912297
 C        -1.158125         2.637277         2.181973
 O        -1.870171         1.715280         3.149226
 C        -2.123093         0.487327         2.452107
 C        -0.711466        -0.226411         2.230610
 H         1.285065        -0.034087         0.824731
 H        -1.817102         0.036724        -1.024056
 H        -2.123806        -1.168496         0.232371
 H        -3.461322         1.533396         0.965972
 H        -1.071142         2.573092        -0.110093
 H        -0.178776         2.946589         2.643943
 H        -1.716927         3.543226         2.213766
 H        -2.982239        -0.029214         2.930848
 H         0.139385         0.047378         2.805062
 H        -0.858841        -1.283466         2.236365
