19
Iteration:  4373charge 0 multiplicity 1
 O         0.709229         0.296333         0.230125
 C        -0.565283         0.481351         0.651841
 C        -1.815964        -0.033064        -0.057132
 C        -2.594883         0.938725         0.976131
 C        -1.299293         1.921307         0.887560
 C        -1.007472         2.451925         2.359469
 O        -1.847266         1.745291         3.154991
 C        -2.174386         0.475573         2.439375
 C        -0.849615        -0.270069         2.148156
 H         0.739159         0.419360        -0.675589
 H        -1.844037         0.417151        -1.084080
 H        -1.998613        -1.205225         0.012174
 H        -3.623158         1.244530         0.943636
 H        -1.312146         2.731801         0.065080
 H         0.154219         2.340020         2.424473
 H        -1.093791         3.602853         2.523976
 H        -3.019646         0.049394         2.922816
 H        -0.055774         0.029700         2.928237
 H        -0.949119        -1.376014         1.932399
