19
Iteration:  1831
 O         0.788209         0.280078         0.156956
 C        -0.555550         0.353507         0.656163
 C        -1.950852         0.016603         0.011505
 C        -2.524401         1.011514         1.071563
 C        -1.249001         1.753363         0.916120
 C        -1.076936         2.564829         2.216350
 O        -1.942530         1.731244         3.166712
 C        -2.178685         0.524536         2.427032
 C        -0.700312        -0.179351         2.094604
 H         0.977541        -0.622734         0.010414
 H        -2.175385         0.458726        -0.927356
 H        -2.368850        -0.950420        -0.142576
 H        -3.499625         1.433307         0.981896
 H        -1.264019         2.418197         0.036498
 H        -0.137373         2.655702         2.745731
 H        -1.683999         3.621304         2.313291
 H        -2.863427        -0.068967         2.993418
 H         0.211714         0.109675         2.813925
 H        -0.788933        -1.264619         2.287016
