19
Iteration:   764charge 0 multiplicity 1
 O         0.708043         0.304342         0.213030
 C        -0.577924         0.446637         0.706884
 C        -1.902989         0.029383        -0.068884
 C        -2.512686         0.989507         0.951311
 C        -1.173092         1.884335         0.883698
 C        -1.045994         2.535329         2.264700
 O        -1.879751         1.728353         3.193603
 C        -2.124950         0.471139         2.424940
 C        -0.872083        -0.278463         2.160414
 H         0.718377        -0.586882        -0.304674
 H        -2.000931         0.410591        -1.163002
 H        -2.318901        -0.958250         0.075621
 H        -3.486627         1.388558         0.822214
 H        -1.053679         2.404917        -0.037436
 H         0.013805         2.319991         2.607685
 H        -1.342447         3.485198         2.418643
 H        -2.888195        -0.019041         3.081282
 H        -0.163112        -0.033628         3.004605
 H        -1.104712        -1.352205         2.127775
