19
Iteration:    65charge 0 multiplicity 1
 O         0.664055         0.375745         0.136783
 C        -0.566391         0.407972         0.775685
 C        -1.811263        -0.030801        -0.015227
 C        -2.526616         1.082890         0.913753
 C        -1.168418         1.850071         0.947403
 C        -1.022298         2.505120         2.300065
 O        -1.768056         1.674956         3.213503
 C        -2.257439         0.535324         2.343974
 C        -1.001246        -0.318920         2.087634
 H         1.126048        -0.524390         0.342122
 H        -1.898105         0.134443        -1.030828
 H        -2.001315        -1.090038         0.185271
 H        -3.495190         1.535275         0.707515
 H        -0.854684         2.488657         0.126409
 H        -0.001989         2.561122         2.631264
 H        -1.398436         3.624020         2.349191
 H        -3.120391         0.130052         2.831575
 H        -0.340013        -0.165453         2.930138
 H        -1.001728        -1.369570         2.094320
