19
Iteration:  1771
 O         0.712141         0.318168         0.025740
 C        -0.529676         0.387482         0.684488
 C        -1.865261        -0.037552         0.053202
 C        -2.579229         0.977169         0.976860
 C        -1.194832         1.829792         0.844239
 C        -1.074208         2.577125         2.283156
 O        -1.842480         1.695653         3.157705
 C        -2.199459         0.488730         2.480292
 C        -0.841151        -0.225490         2.192717
 H         1.359475         0.155000         0.702749
 H        -1.911889         0.292520        -1.057769
 H        -2.340223        -1.055429         0.089104
 H        -3.582693         1.489520         0.805136
 H        -1.162604         2.488865        -0.054065
 H         0.002431         2.749779         2.743301
 H        -1.492629         3.608893         2.245533
 H        -2.950893        -0.101966         3.153420
 H        -0.230617         0.024587         3.018239
 H        -1.090479        -1.332335         2.243221
