19
Iteration:  4016
 O         0.731777         0.197728         0.274948
 C        -0.595642         0.416581         0.808803
 C        -1.883983         0.090392         0.007643
 C        -2.567492         1.091236         1.012292
 C        -1.222913         1.827325         0.936356
 C        -1.180929         2.599409         2.182357
 O        -1.800806         1.645270         3.146445
 C        -2.103187         0.468321         2.399420
 C        -0.797329        -0.290702         2.020227
 H         0.712000         0.602982        -0.562970
 H        -1.720070         0.310514        -1.102662
 H        -2.248754        -1.025707        -0.065217
 H        -3.496240         1.619362         1.029364
 H        -0.931529         2.361917        -0.012839
 H        -0.167546         2.807909         2.684881
 H        -1.731043         3.491892         2.067982
 H        -2.838446        -0.180242         2.891762
 H        -0.149342        -0.066687         2.905534
 H        -0.996123        -1.337421         2.037873
