19
Iteration:  2560
 O         0.569843         0.301262        -0.052390
 C        -0.530542         0.424574         0.824495
 C        -1.751397        -0.041868         0.033744
 C        -2.476440         0.908562         0.990589
 C        -1.258487         1.814874         0.909025
 C        -1.070926         2.487541         2.226943
 O        -1.943392         1.768989         3.156018
 C        -2.136055         0.534943         2.477412
 C        -0.829949        -0.209975         2.263989
 H         1.404070         0.782593         0.250155
 H        -1.590385         0.336232        -1.030503
 H        -2.140244        -1.128316         0.049067
 H        -3.496705         1.337207         0.727235
 H        -1.243388         2.415753        -0.097625
 H         0.034827         2.416518         2.602153
 H        -1.355868         3.478345         2.221605
 H        -2.903274        -0.000801         2.953362
 H         0.042967         0.036708         2.781198
 H        -1.032507        -1.313866         2.182019
