19
Iteration:   150charge 0 multiplicity 1
 O         0.756668         0.134166         0.174824
 C        -0.541996         0.396565         0.719719
 C        -1.859441         0.003166        -0.013238
 C        -2.535789         1.069420         0.908618
 C        -1.216378         1.855317         0.995511
 C        -1.012027         2.481566         2.345746
 O        -1.892547         1.721776         3.207472
 C        -2.284995         0.527291         2.375252
 C        -0.831193        -0.200629         2.076063
 H         0.777475         0.557606        -0.655494
 H        -1.856299         0.391328        -1.026997
 H        -2.261665        -1.101276         0.009327
 H        -3.439763         1.645723         0.596485
 H        -1.178878         2.584286         0.166408
 H         0.010952         2.527049         2.797421
 H        -1.399724         3.503000         2.350024
 H        -3.081808         0.057435         2.905776
 H        -0.170247         0.375372         2.766571
 H        -0.736017        -1.328925         2.101323
