19
Iteration:  4117charge 0 multiplicity 1
 O         0.713172         0.200495         0.185601
 C        -0.558313         0.424157         0.681126
 C        -1.817787         0.021209        -0.074639
 C        -2.489193         0.997051         0.978710
 C        -1.216367         1.876438         0.921221
 C        -1.137112         2.576555         2.252136
 O        -1.902989         1.685159         3.240847
 C        -2.172539         0.547959         2.477606
 C        -0.813616        -0.252363         2.134573
 H         0.647253        -0.125583        -0.809441
 H        -1.919516         0.486705        -1.111636
 H        -2.064663        -1.036058         0.020948
 H        -3.474994         1.448107         0.968675
 H        -1.097952         2.572688         0.170128
 H        -0.089075         2.772265         2.556553
 H        -1.627340         3.455500         2.347926
 H        -2.866842        -0.198024         2.847150
 H         0.017621        -0.014353         2.809975
 H        -0.920562        -1.316087         1.949855
