19
Iteration:  2621charge 0 multiplicity 1
 O         0.669077         0.188553         0.174614
 C        -0.606835         0.476415         0.743354
 C        -1.860622        -0.030046        -0.053422
 C        -2.605289         0.875314         1.013491
 C        -1.307341         1.856188         0.862459
 C        -1.137883         2.643132         2.232204
 O        -1.798356         1.708334         3.169246
 C        -2.108913         0.481405         2.445969
 C        -0.732140        -0.155705         2.090147
 H         1.288898        -0.094530         0.777746
 H        -1.864286         0.514308        -0.940910
 H        -1.946528        -1.106346        -0.070257
 H        -3.614088         1.386053         0.996611
 H        -1.318063         2.426567        -0.010854
 H        -0.149317         2.799190         2.618583
 H        -1.725580         3.673346         2.205873
 H        -2.797583        -0.091472         3.138230
 H         0.202661         0.166207         2.697714
 H        -0.596886        -1.278566         2.083654
