19
Iteration:  1402charge 0 multiplicity 1
 O         0.695983         0.310332         0.035030
 C        -0.553033         0.393812         0.756672
 C        -1.830964         0.024598        -0.024825
 C        -2.558082         0.976728         0.997862
 C        -1.145720         1.779003         0.893356
 C        -1.181515         2.608887         2.259874
 O        -1.795405         1.633322         3.211915
 C        -2.142756         0.583590         2.449269
 C        -0.942753        -0.258200         2.137759
 H         1.317438         0.208128         0.669196
 H        -1.808832         0.356078        -1.013659
 H        -1.912585        -1.184021        -0.125965
 H        -3.514901         1.488666         0.951563
 H        -0.921098         2.460629         0.095516
 H        -0.179668         2.656559         2.812348
 H        -1.621545         3.569185         2.287132
 H        -3.072875         0.137885         2.925545
 H        -0.150429        -0.236846         2.836049
 H        -1.180263        -1.347663         1.979255
