19
Iteration:  1016
 O         0.682928         0.350916         0.098484
 C        -0.593871         0.393468         0.760500
 C        -1.895417        -0.036175        -0.046822
 C        -2.442038         0.986608         1.017372
 C        -1.108038         1.906234         0.896603
 C        -1.041285         2.520348         2.258986
 O        -1.915084         1.674588         3.176086
 C        -2.204053         0.562397         2.417619
 C        -0.865526        -0.278404         2.192647
 H         0.869629        -0.585306        -0.129695
 H        -1.964166         0.389020        -1.092037
 H        -2.259440        -1.001004         0.030005
 H        -3.371452         1.469492         0.675575
 H        -1.133553         2.547599        -0.028216
 H        -0.103571         2.387255         2.741304
 H        -1.446839         3.565387         2.556646
 H        -2.951838         0.038828         3.001310
 H        -0.069972        -0.006798         2.918300
 H        -0.944592        -1.352325         1.984266
