19
Iteration:  2412
 O         0.595399         0.164096         0.099843
 C        -0.609523         0.503012         0.787905
 C        -1.803816        -0.087695        -0.065612
 C        -2.565755         0.858061         0.981883
 C        -1.345237         1.860991         0.888204
 C        -1.038113         2.515565         2.262610
 O        -1.903054         1.779760         3.149791
 C        -2.103555         0.504559         2.465978
 C        -0.710168        -0.070071         2.141751
 H         1.341495         0.525368         0.661563
 H        -1.775433         0.519728        -1.052599
 H        -1.959064        -1.239942        -0.065137
 H        -3.519601         1.203104         0.769665
 H        -1.464222         2.411313        -0.006110
 H        -0.058125         2.223976         2.664556
 H        -1.107477         3.661653         2.464928
 H        -2.884820        -0.004304         3.074225
 H         0.250395         0.259898         2.772305
 H        -0.691430        -1.169445         2.177270
