19
Iteration:  4949
 O         0.719114         0.158165         0.314242
 C        -0.611813         0.457447         0.727597
 C        -1.850785         0.017909         0.046600
 C        -2.537416         0.989038         1.043516
 C        -1.303713         1.833978         0.863435
 C        -1.176290         2.579846         2.151132
 O        -1.785142         1.726523         3.101422
 C        -2.098918         0.503839         2.469342
 C        -0.779433        -0.258388         2.051443
 H         1.131703         1.049585        -0.061697
 H        -1.997915         0.231883        -1.044855
 H        -2.170783        -1.101494         0.097111
 H        -3.601533         1.274841         0.846306
 H        -1.414950         2.432209        -0.072681
 H        -0.178262         2.676061         2.503418
 H        -1.617319         3.580058         2.022147
 H        -2.895231         0.023251         3.101275
 H        -0.003499         0.015124         2.834972
 H        -0.784790        -1.318676         1.905859
