19
Iteration:   243
 O         0.701834         0.125844         0.143356
 C        -0.552344         0.410806         0.776454
 C        -1.951859         0.082199         0.029102
 C        -2.535860         1.063613         0.946755
 C        -1.167600         1.868481         0.979615
 C        -1.069048         2.536377         2.287938
 O        -1.946193         1.716515         3.093141
 C        -2.121649         0.494170         2.334526
 C        -0.823633        -0.290866         2.160632
 H         1.395225         0.888049         0.320480
 H        -1.864097         0.319489        -1.088589
 H        -2.275070        -0.915351         0.080912
 H        -3.583276         1.480054         0.912124
 H        -0.754575         2.470884         0.145559
 H        -0.048895         2.657771         2.653237
 H        -1.450755         3.715116         2.212383
 H        -2.797959        -0.198800         2.958725
 H         0.006345        -0.007306         2.839516
 H        -0.953862        -1.365029         2.011601
