19
Iteration:  2126
 O         0.663323         0.258762         0.154121
 C        -0.644779         0.416635         0.682153
 C        -1.917890        -0.100671         0.040861
 C        -2.504226         0.969813         1.039312
 C        -1.273837         1.874010         0.854299
 C        -1.072432         2.524326         2.257979
 O        -1.904079         1.722819         3.103313
 C        -2.085820         0.522100         2.448598
 C        -0.700856        -0.103373         2.127188
 H         1.115766        -0.299091         0.797759
 H        -2.049873         0.371934        -1.029540
 H        -2.393718        -1.222777        -0.069159
 H        -3.487604         1.454294         0.802401
 H        -1.239459         2.518600        -0.085575
 H        -0.000649         2.321636         2.634092
 H        -1.253137         3.562646         2.345881
 H        -2.667469        -0.217939         2.997345
 H         0.009498         0.284041         2.975817
 H        -0.681463        -1.200293         2.114724
