19
Iteration:   436
 O         0.567924         0.111260         0.043322
 C        -0.573726         0.425207         0.785034
 C        -1.719209         0.104487        -0.042903
 C        -2.425891         1.004863         0.951088
 C        -1.259809         1.901318         0.999632
 C        -1.077507         2.485338         2.327387
 O        -1.946788         1.788426         3.110644
 C        -2.167723         0.457915         2.368019
 C        -0.800257        -0.273943         2.180121
 H         1.390664         0.225292         0.329336
 H        -1.899225         0.555585        -1.035557
 H        -2.093450        -0.936201        -0.042300
 H        -3.462496         1.403458         0.711125
 H        -1.111183         2.706095         0.277284
 H         0.050174         2.388896         2.690777
 H        -1.380704         3.625749         2.479463
 H        -3.056916         0.090877         3.014922
 H        -0.249612         0.158725         3.041033
 H        -0.736985        -1.373421         2.254120
