19
Iteration:   516
 O         0.695989         0.225272         0.150589
 C        -0.608338         0.431031         0.719604
 C        -1.789733         0.017177        -0.132684
 C        -2.481444         0.940740         0.945989
 C        -1.294072         1.841678         0.885365
 C        -1.097813         2.522435         2.290256
 O        -1.748241         1.711875         3.219086
 C        -2.251605         0.562420         2.487893
 C        -0.911817        -0.224683         2.126507
 H         1.305789         0.057957         0.791698
 H        -1.793599         0.723575        -1.055523
 H        -2.033258        -1.030549        -0.211090
 H        -3.453502         1.340564         0.770920
 H        -1.319743         2.602030         0.100997
 H         0.077368         2.318933         2.460894
 H        -1.286620         3.580230         2.399862
 H        -3.097606         0.190895         3.104951
 H        -0.155958        -0.078253         2.918256
 H        -1.083092        -1.283527         1.939991
