19
Iteration:   245
 O         0.702968         0.130314         0.132644
 C        -0.552923         0.403997         0.752508
 C        -1.956647         0.085654         0.023081
 C        -2.510267         1.047868         0.976863
 C        -1.150681         1.862546         0.985329
 C        -1.076825         2.531936         2.289608
 O        -1.958838         1.726643         3.090727
 C        -2.124091         0.501748         2.328864
 C        -0.835599        -0.284119         2.167980
 H         1.415362         0.876254         0.326585
 H        -1.897420         0.328422        -1.065634
 H        -2.291151        -0.924369         0.063929
 H        -3.571204         1.427603         0.869245
 H        -0.762885         2.509226         0.152255
 H        -0.049408         2.692717         2.716862
 H        -1.461296         3.680518         2.212759
 H        -2.768683        -0.140496         2.958534
 H         0.014662        -0.068714         2.849465
 H        -0.950462        -1.387461         2.060529
