19
Iteration:  2878charge 0 multiplicity 1
 O         0.708159         0.137745        -0.028216
 C        -0.512676         0.400339         0.763046
 C        -1.799592         0.001809         0.056391
 C        -2.523583         0.967786         1.007345
 C        -1.222347         1.831188         0.898368
 C        -1.201461         2.639335         2.214076
 O        -1.886300         1.748538         3.202673
 C        -2.161038         0.478117         2.491798
 C        -0.797265        -0.215055         2.133448
 H         1.396142         0.630964         0.420040
 H        -1.882489         0.545008        -0.941909
 H        -2.272621        -0.985213         0.094103
 H        -3.440633         1.436526         0.788870
 H        -1.142606         2.503242         0.025376
 H        -0.314628         2.799591         2.745504
 H        -1.861638         3.645979         2.140825
 H        -2.925129        -0.033054         3.031431
 H        -0.094566        -0.079693         2.962374
 H        -0.887895        -1.385681         2.174870
