19
Iteration:   334
 O         0.817673         0.272997         0.214324
 C        -0.608137         0.357038         0.688874
 C        -1.963357        -0.011519        -0.113691
 C        -2.532957         0.982237         0.972194
 C        -1.189326         1.824422         0.917396
 C        -1.071435         2.530553         2.328081
 O        -1.798168         1.724316         3.182345
 C        -2.175702         0.568733         2.440434
 C        -0.918920        -0.246414         2.036645
 H         1.397308        -0.064178         1.041735
 H        -2.055450         0.624710        -0.933800
 H        -2.360226        -1.048974        -0.310234
 H        -3.477239         1.395334         0.654372
 H        -1.126704         2.459970         0.031295
 H        -0.006422         2.649286         2.677816
 H        -1.553584         3.643054         2.477100
 H        -2.970366         0.128430         2.932070
 H        -0.213512        -0.023691         2.830995
 H        -1.315017        -1.275341         2.022638
