19
Iteration:  4357charge 0 multiplicity 1
 O         0.757337         0.348296         0.228949
 C        -0.628404         0.495640         0.743590
 C        -1.840293        -0.018441        -0.026896
 C        -2.517113         0.956110         1.015433
 C        -1.312507         1.821685         0.918364
 C        -0.913871         2.381312         2.214925
 O        -1.880821         1.689625         3.192056
 C        -2.264888         0.541164         2.443473
 C        -0.848009        -0.170952         2.069381
 H         0.782708         0.581676        -0.769406
 H        -1.990316         0.325823        -1.063007
 H        -2.011642        -1.042280        -0.050046
 H        -3.486699         1.383743         0.638674
 H        -1.262382         2.398674         0.023748
 H         0.041377         2.090859         2.543736
 H        -1.160009         3.425727         2.366026
 H        -2.865270        -0.107654         3.166117
 H        -0.145321         0.021313         2.837959
 H        -0.919602        -1.251369         2.052929
