19
Iteration:  2305charge 0 multiplicity 1
 O         0.645351         0.227687         0.201059
 C        -0.599191         0.431542         0.695819
 C        -1.930860        -0.053231        -0.034238
 C        -2.503761         0.890793         1.022732
 C        -1.278650         1.890187         0.845748
 C        -1.100423         2.590196         2.250156
 O        -1.902059         1.764345         3.108209
 C        -2.059754         0.508430         2.516901
 C        -0.703643        -0.216829         2.102997
 H         1.353652         0.387157         0.823656
 H        -2.055744         0.453913        -1.032284
 H        -2.388907        -1.113455         0.037018
 H        -3.489047         1.363220         1.011748
 H        -1.283118         2.315683        -0.148348
 H         0.004344         2.491694         2.594155
 H        -1.399216         3.608368         2.232868
 H        -2.758118        -0.075827         3.149191
 H         0.079921         0.008407         2.796304
 H        -0.739377        -1.296145         1.795772
