19
Iteration:  2424charge 0 multiplicity 1
 O         0.627551         0.203747         0.134938
 C        -0.571498         0.464662         0.695903
 C        -1.847390         0.011865         0.060122
 C        -2.543724         0.901839         0.968804
 C        -1.328093         1.891486         0.855403
 C        -1.030869         2.514077         2.186122
 O        -1.918547         1.727256         3.148902
 C        -2.106936         0.465181         2.459685
 C        -0.716785        -0.129516         2.196368
 H         1.321855         0.457175         0.654512
 H        -2.108182         0.218448        -1.017060
 H        -2.216707        -1.110135         0.163570
 H        -3.538202         1.181209         0.770502
 H        -1.276258         2.554814         0.062424
 H         0.076117         2.421607         2.386363
 H        -1.334003         3.596181         2.296794
 H        -2.819823        -0.214196         3.012280
 H        -0.024899         0.312981         3.018151
 H        -0.580478        -1.241846         2.050547
