19
Iteration:  4245
 O         0.810989         0.252660         0.197449
 C        -0.587364         0.428107         0.677689
 C        -1.950432         0.018285        -0.028208
 C        -2.444573         1.012861         1.016576
 C        -1.196644         1.873360         0.935970
 C        -1.093137         2.531825         2.321357
 O        -1.919435         1.682008         3.143775
 C        -2.188200         0.453742         2.458020
 C        -0.840796        -0.190701         2.088497
 H         0.803801         0.226638        -0.780485
 H        -2.107609         0.288688        -1.033474
 H        -2.393082        -0.970279         0.077065
 H        -3.360006         1.475447         0.792338
 H        -1.308529         2.465395        -0.049783
 H        -0.126595         2.375684         2.739049
 H        -1.354798         3.610858         2.185782
 H        -2.814977        -0.186575         3.052174
 H        -0.075443         0.023392         2.911885
 H        -0.803890        -1.285124         2.026696
