19
Iteration:  4495
 O         0.684782         0.483284         0.237907
 C        -0.631613         0.423721         0.707137
 C        -1.946287         0.002676        -0.095410
 C        -2.521031         0.964504         0.940700
 C        -1.164265         1.822592         0.951088
 C        -0.890705         2.404270         2.246830
 O        -1.948873         1.720591         3.198380
 C        -2.178875         0.468758         2.481849
 C        -0.840110        -0.212444         2.108738
 H         0.912744        -0.165785        -0.467642
 H        -1.952282         0.092954        -1.169900
 H        -2.263369        -1.096824        -0.006258
 H        -3.431574         1.474729         0.791945
 H        -1.013078         2.322969        -0.033645
 H         0.119264         2.116129         2.488695
 H        -1.200576         3.477117         2.385864
 H        -2.887461        -0.126856         3.066517
 H         0.049660         0.003939         2.800228
 H        -0.932216        -1.327900         2.093273
