19
Iteration:  4060charge 0 multiplicity 1
 O         0.698668         0.250818         0.183499
 C        -0.587785         0.413684         0.734249
 C        -1.806619        -0.032198         0.001731
 C        -2.620640         0.916714         0.963627
 C        -1.241194         1.860204         0.907316
 C        -0.956872         2.485097         2.349687
 O        -1.877024         1.760327         3.155532
 C        -2.208579         0.488863         2.383386
 C        -0.881828        -0.157443         2.102133
 H         1.017996         0.959113        -0.251034
 H        -1.909912         0.288254        -1.074881
 H        -2.016837        -1.155921        -0.090111
 H        -3.552136         1.387368         0.798858
 H        -1.148352         2.593257         0.047327
 H         0.148378         2.338942         2.476891
 H        -1.255779         3.483455         2.490718
 H        -2.802217        -0.121530         3.074755
 H        -0.072719         0.062436         2.851609
 H        -0.811591        -1.207309         1.962858
