19
Iteration:  3829
 O         0.664649         0.276099         0.178502
 C        -0.575465         0.401964         0.791423
 C        -1.796863         0.013655         0.070000
 C        -2.524002         1.025899         0.938736
 C        -1.249830         1.853001         0.890826
 C        -1.039028         2.577505         2.241182
 O        -1.894462         1.690751         3.186179
 C        -2.147142         0.490468         2.376285
 C        -0.796102        -0.248819         2.148432
 H         0.398192        -0.231892        -0.597598
 H        -1.794532         0.165423        -1.039340
 H        -2.240113        -1.057614         0.014381
 H        -3.537062         1.473105         0.809829
 H        -1.102764         2.535517        -0.056364
 H         0.093539         2.531812         2.515449
 H        -1.498938         3.546222         2.314643
 H        -2.998122        -0.059645         2.760409
 H        -0.169514         0.141895         2.955430
 H        -0.823386        -1.367039         2.027177
