19
Iteration:  2270
 O         0.673378         0.309011        -0.085800
 C        -0.508145         0.442853         0.823918
 C        -1.854064        -0.132972         0.097188
 C        -2.502038         0.990278         0.954950
 C        -1.244434         1.809666         0.848463
 C        -1.072401         2.518937         2.253880
 O        -1.880184         1.709130         3.189995
 C        -2.269219         0.545971         2.435267
 C        -0.800548        -0.159025         2.221203
 H         1.420141         0.325475         0.461519
 H        -2.017199         0.157953        -1.035153
 H        -2.380638        -1.196118         0.167849
 H        -3.387514         1.357270         0.585012
 H        -1.153774         2.363227        -0.020608
 H        -0.032085         2.408312         2.791431
 H        -1.300855         3.555361         2.355310
 H        -2.995031         0.128175         3.106565
 H        -0.083423         0.159903         3.060740
 H        -0.648781        -1.228555         2.245244
