19
Iteration:  1850
 O         0.677386         0.374903         0.129648
 C        -0.587816         0.405661         0.736334
 C        -1.891033        -0.046014        -0.015391
 C        -2.549293         0.927418         0.952053
 C        -1.207614         1.831076         0.872816
 C        -1.064479         2.478351         2.258145
 O        -1.869772         1.762825         3.178039
 C        -2.122201         0.496809         2.498989
 C        -0.836833        -0.179117         2.148514
 H         0.921687        -0.472741        -0.044374
 H        -1.797585         0.234816        -1.018341
 H        -2.146579        -1.135868         0.120774
 H        -3.495369         1.467768         0.849248
 H        -0.880640         2.506820         0.092393
 H         0.036143         2.397367         2.475644
 H        -1.381577         3.545682         2.137661
 H        -2.970924         0.010522         2.987880
 H        -0.147363         0.089795         2.953007
 H        -0.845533        -1.301646         2.119453
