19
Iteration:  4457
 O         0.720743         0.140151         0.195355
 C        -0.528587         0.526120         0.753331
 C        -1.859103         0.065375        -0.044131
 C        -2.499075         0.971404         0.999169
 C        -1.214303         1.910815         0.911198
 C        -1.087057         2.577176         2.259058
 O        -1.916433         1.638196         3.169985
 C        -2.134100         0.425149         2.448974
 C        -0.837150        -0.193641         2.098539
 H         0.532360         0.413951        -0.831680
 H        -1.996373         0.532815        -1.055073
 H        -2.148769        -0.941288         0.107834
 H        -3.599010         1.264742         0.889682
 H        -1.282260         2.660905         0.158283
 H        -0.001232         2.658849         2.548894
 H        -1.478700         3.600610         2.464122
 H        -2.829677        -0.233184         3.020705
 H        -0.127902        -0.035534         2.848959
 H        -0.914065        -1.262431         1.908193
