19
Iteration:   941
 O         0.664336         0.274161         0.151860
 C        -0.545285         0.430356         0.751161
 C        -1.910416         0.055401         0.062844
 C        -2.552260         1.030708         0.979459
 C        -1.215404         1.843330         0.858140
 C        -1.023703         2.502043         2.256888
 O        -1.858953         1.690011         3.138412
 C        -2.247416         0.503656         2.426194
 C        -0.778262        -0.246608         2.089365
 H         1.283233        -0.362226         0.757327
 H        -1.865981         0.608927        -0.958167
 H        -2.233417        -1.011509        -0.183518
 H        -3.507009         1.537848         0.726356
 H        -1.009947         2.429445        -0.097220
 H        -0.074117         2.479388         2.811013
 H        -1.324894         3.479874         2.569417
 H        -3.055150         0.041708         2.952222
 H         0.004785        -0.185150         2.885217
 H        -0.729215        -1.360119         1.813730
