19
Iteration:  1491charge 0 multiplicity 1
 O         0.588158         0.233655        -0.009521
 C        -0.517767         0.343851         0.786615
 C        -1.783966         0.068149         0.111039
 C        -2.480388         1.003961         0.949299
 C        -1.204452         1.896367         0.975092
 C        -1.100993         2.516304         2.312601
 O        -1.937568         1.706803         3.112408
 C        -2.171278         0.496350         2.386280
 C        -0.804577        -0.198557         2.148195
 H         1.359479         0.234513         0.445523
 H        -1.565642         0.408549        -0.926678
 H        -2.193929        -0.999407        -0.088856
 H        -3.590912         1.260046         0.918332
 H        -1.285179         2.701631         0.236693
 H        -0.000284         2.429564         2.579531
 H        -1.294271         3.540817         2.345617
 H        -2.934811        -0.229719         2.827740
 H        -0.133989        -0.109510         2.989243
 H        -0.909430        -1.291709         2.003413
