19
Iteration:  1102charge 0 multiplicity 1
 O         0.710880         0.310095         0.105212
 C        -0.554821         0.392070         0.741825
 C        -1.839609         0.024836        -0.027552
 C        -2.538524         0.994969         0.964860
 C        -1.218324         1.947761         0.901126
 C        -1.096744         2.554926         2.291832
 O        -1.755700         1.693576         3.225598
 C        -2.201217         0.497433         2.379434
 C        -0.927781        -0.321403         2.142894
 H         1.302923        -0.299885         0.739327
 H        -2.108462         0.365558        -1.088655
 H        -2.197237        -0.957711         0.028748
 H        -3.612458         1.218225         0.741602
 H        -1.038060         2.464802        -0.077790
 H        -0.029881         2.812119         2.567214
 H        -1.588665         3.559969         2.276091
 H        -2.996742        -0.161407         2.810327
 H        -0.289443        -0.284869         3.028857
 H        -1.088905        -1.348437         1.960280
