19
Iteration:  1863charge 0 multiplicity 1
 O         0.591757         0.433754         0.118762
 C        -0.594774         0.474653         0.772709
 C        -1.803340        -0.129538        -0.003909
 C        -2.488849         0.976941         0.954674
 C        -1.257074         1.856857         0.920545
 C        -0.961943         2.497800         2.227301
 O        -1.830557         1.728751         3.110013
 C        -2.214741         0.519027         2.389368
 C        -0.838799        -0.256409         2.247671
 H         0.803796        -0.623301         0.101083
 H        -1.980548         0.185524        -0.959031
 H        -2.061686        -1.162465         0.210980
 H        -3.526828         1.152194         0.782875
 H        -1.245211         2.416743        -0.033804
 H         0.085322         2.450686         2.590930
 H        -1.287798         3.629608         2.459687
 H        -2.880870        -0.014892         3.015583
 H        -0.000186        -0.055074         3.035462
 H        -1.065583        -1.329455         2.044154
