19
Iteration:  1548
 O         0.680093         0.129127         0.164656
 C        -0.536061         0.456970         0.717439
 C        -1.916803         0.088172        -0.052414
 C        -2.582194         1.026886         1.017868
 C        -1.193745         1.895984         0.919754
 C        -1.086351         2.607239         2.225822
 O        -1.880864         1.635521         3.177490
 C        -2.171760         0.415606         2.437009
 C        -0.762552        -0.203047         2.080608
 H         1.418203         0.367752         0.787831
 H        -1.918745         0.586945        -1.104353
 H        -2.074534        -0.968661        -0.007650
 H        -3.560105         1.512132         0.956453
 H        -1.318858         2.576016         0.058722
 H        -0.102247         2.630437         2.683984
 H        -1.619186         3.514111         2.290198
 H        -2.847772        -0.165418         3.027729
 H         0.123940         0.021396         2.754236
 H        -0.792137        -1.262314         1.934831
