19
Iteration:  3283
 O         0.670835         0.292698         0.217171
 C        -0.563273         0.393159         0.787778
 C        -1.960086        -0.073214         0.055624
 C        -2.531404         0.928989         0.911078
 C        -1.304928         1.874811         0.809052
 C        -1.178453         2.578878         2.193186
 O        -1.815223         1.770964         3.163707
 C        -2.034877         0.484368         2.430815
 C        -0.740628        -0.224173         2.100474
 H         1.260227         0.028738         0.938694
 H        -2.001598         0.370581        -0.921178
 H        -2.302392        -1.137895        -0.008943
 H        -3.545120         1.352342         0.916351
 H        -1.079955         2.623503        -0.158378
 H        -0.051236         2.512913         2.467174
 H        -1.437899         3.586017         2.357825
 H        -2.775907        -0.085232         3.061256
 H         0.077168        -0.032296         2.763392
 H        -0.964900        -1.280016         2.043070
