19
Iteration:  3475
 O         0.679238         0.247591         0.179748
 C        -0.554080         0.405819         0.707360
 C        -1.855147        -0.000174         0.047813
 C        -2.537710         0.888456         1.062173
 C        -1.299816         1.862993         0.885365
 C        -1.153661         2.629561         2.106448
 O        -1.896189         1.741663         3.144241
 C        -2.073026         0.546134         2.431793
 C        -0.712543        -0.231291         2.170156
 H         1.038384        -0.606041         0.587323
 H        -1.926202         0.654930        -0.926061
 H        -2.088489        -1.086098        -0.212188
 H        -3.638694         1.147454         0.967424
 H        -1.260343         2.401360         0.024371
 H        -0.117511         2.752694         2.484283
 H        -1.587040         3.614609         2.020313
 H        -2.834731        -0.121408         2.942352
 H         0.124093         0.079642         2.883790
 H        -0.900555        -1.369906         2.123785
