19
Iteration:  2827charge 0 multiplicity 1
 O         0.759023         0.319213         0.125854
 C        -0.577061         0.407944         0.711285
 C        -1.932515        -0.053410         0.007408
 C        -2.580468         0.974193         1.040501
 C        -1.272881         1.772842         0.874420
 C        -1.070889         2.451925         2.207901
 O        -1.882292         1.779823         3.147116
 C        -2.157337         0.495443         2.421763
 C        -0.760130        -0.165558         2.157137
 H         1.447789         0.459248         0.734383
 H        -2.074256         0.367079        -0.973907
 H        -2.155064        -1.108139         0.093530
 H        -3.616646         1.376083         0.929697
 H        -1.293488         2.428584         0.046333
 H        -0.004044         2.404557         2.665869
 H        -1.275461         3.472246         2.149584
 H        -3.042235        -0.098550         2.923383
 H         0.168786         0.198862         2.696351
 H        -0.863794        -1.176215         2.329103
