19
Iteration:  2958charge 0 multiplicity 1
 O         0.660876         0.501361         0.125811
 C        -0.590110         0.319813         0.775804
 C        -1.905165        -0.075482         0.070742
 C        -2.523527         0.910902         0.984386
 C        -1.183233         1.745012         0.864517
 C        -0.995749         2.474865         2.223573
 O        -1.918410         1.802922         3.099162
 C        -2.130084         0.537627         2.490521
 C        -0.810155        -0.223809         2.103524
 H         1.222642        -0.307335         0.200342
 H        -1.943719         0.219254        -0.927605
 H        -2.277838        -1.080876         0.035306
 H        -3.568949         1.336655         0.868888
 H        -0.976577         2.353691         0.057478
 H         0.036297         2.550429         2.506676
 H        -1.424521         3.549566         2.320494
 H        -2.880446        -0.074579         3.172153
 H        -0.202695         0.067699         3.018386
 H        -1.102587        -1.231609         2.000052
