19
Iteration:  1124charge 0 multiplicity 1
 O         0.654834         0.264942         0.139646
 C        -0.596292         0.425598         0.789549
 C        -1.851676         0.065864         0.006950
 C        -2.485181         1.043891         0.994950
 C        -1.238625         1.845396         0.978157
 C        -1.111299         2.546851         2.230354
 O        -1.800406         1.629798         3.130288
 C        -2.165546         0.520227         2.439748
 C        -0.885792        -0.291183         2.060071
 H         1.273125        -0.031095         0.758258
 H        -1.743950         0.474180        -1.079197
 H        -2.043850        -0.970305        -0.056745
 H        -3.396102         1.629226         0.708052
 H        -1.041617         2.383204        -0.006289
 H        -0.053323         2.848742         2.463595
 H        -1.662814         3.427898         2.313220
 H        -2.999667         0.009315         2.989712
 H        -0.055511        -0.147138         2.754564
 H        -0.831707        -1.313662         1.851650
