19
Iteration:  2895charge 0 multiplicity 1
 O         0.663668         0.134431         0.106576
 C        -0.572814         0.364925         0.678413
 C        -1.918534         0.021715        -0.102332
 C        -2.468475         0.959371         1.037464
 C        -1.220147         1.839263         0.939388
 C        -1.211826         2.613864         2.246043
 O        -1.920205         1.789381         3.213988
 C        -2.067944         0.488238         2.453431
 C        -0.727366        -0.204095         2.126101
 H         1.378026         0.258779         0.823768
 H        -1.905535         0.505482        -1.060502
 H        -2.094559        -1.072036        -0.098951
 H        -3.543993         1.347331         1.016915
 H        -1.161630         2.464255         0.003780
 H        -0.151771         3.005044         2.505038
 H        -1.773434         3.489121         2.149433
 H        -2.735081        -0.162665         3.097392
 H         0.129656         0.154472         2.770200
 H        -0.691026        -1.266659         2.131167
