19
Iteration:  2701charge 0 multiplicity 1
 O         0.742194         0.317584         0.140988
 C        -0.598779         0.473384         0.747856
 C        -1.842931        -0.070851         0.028733
 C        -2.579234         0.884524         1.015523
 C        -1.348924         1.779698         0.866299
 C        -1.007402         2.520290         2.198321
 O        -1.888549         1.743686         3.186681
 C        -2.210892         0.489174         2.465618
 C        -0.724453        -0.078882         2.137695
 H         0.963961        -0.520325        -0.100913
 H        -1.776200         0.245788        -1.021146
 H        -2.372312        -1.063921         0.004752
 H        -3.472745         1.437071         0.716433
 H        -1.360795         2.431334        -0.039522
 H         0.041343         2.397969         2.422733
 H        -1.264841         3.650114         2.233821
 H        -2.671590        -0.123999         3.142062
 H        -0.017396         0.361540         2.794221
 H        -0.872140        -1.250270         2.101404
