19
Iteration:  1493
 O         0.576735         0.224948        -0.019477
 C        -0.511210         0.368956         0.788514
 C        -1.790899         0.068435         0.121051
 C        -2.469741         1.013901         0.951724
 C        -1.189147         1.879332         0.989037
 C        -1.107543         2.503594         2.307941
 O        -1.937328         1.714878         3.113044
 C        -2.174622         0.489853         2.381389
 C        -0.813254        -0.211092         2.140527
 H         1.383897         0.263650         0.454477
 H        -1.557724         0.420739        -0.983518
 H        -2.106241        -0.962368        -0.066016
 H        -3.572871         1.216762         0.930430
 H        -1.270269         2.661397         0.203991
 H        -0.028264         2.432097         2.562255
 H        -1.389687         3.609612         2.358384
 H        -2.951632        -0.151775         2.828513
 H        -0.136026        -0.086488         3.086518
 H        -0.826112        -1.288618         1.971618
