19
Iteration:  3177
 O         0.644053         0.113981         0.070460
 C        -0.596135         0.386647         0.775215
 C        -1.772683        -0.048631        -0.025201
 C        -2.526102         1.053966         0.926363
 C        -1.282553         1.903565         0.931466
 C        -1.229054         2.617882         2.253417
 O        -1.813353         1.729347         3.201856
 C        -2.132530         0.465180         2.449359
 C        -0.745712        -0.174423         2.107518
 H         1.356440         0.400626         0.773376
 H        -1.894210         0.244528        -1.059196
 H        -2.089205        -1.079607         0.262896
 H        -3.592961         1.209599         0.664720
 H        -1.007102         2.406000         0.138137
 H        -0.213274         2.866475         2.503188
 H        -1.820856         3.634671         2.266782
 H        -2.907326        -0.093401         2.999246
 H        -0.093241         0.272592         2.954651
 H        -0.508567        -1.301570         2.128071
