19
Iteration:  1417
 O         0.621125         0.320787         0.114985
 C        -0.585197         0.417800         0.766342
 C        -1.776297        -0.009473        -0.018831
 C        -2.506338         0.979113         0.958403
 C        -1.262235         1.879607         0.966371
 C        -1.055329         2.561152         2.274966
 O        -1.751687         1.719870         3.214645
 C        -2.232238         0.477603         2.392575
 C        -0.893459        -0.320975         2.075910
 H         1.459133         0.055609         0.686869
 H        -1.773408         0.427279        -1.092516
 H        -2.134913        -0.992827        -0.096481
 H        -3.499418         1.361395         0.585563
 H        -1.159381         2.354294        -0.019351
 H        -0.081818         2.930607         2.480388
 H        -1.749551         3.554661         2.163479
 H        -2.882156        -0.086285         3.078593
 H        -0.196843        -0.161239         3.006337
 H        -1.053193        -1.401907         1.957840
