19
Iteration:  4918charge 0 multiplicity 1
 O         0.728848         0.349450         0.117515
 C        -0.568366         0.402238         0.690640
 C        -1.856912        -0.083666        -0.019691
 C        -2.486632         0.970494         1.001411
 C        -1.218862         1.760717         0.891539
 C        -1.058365         2.491588         2.291884
 O        -1.965915         1.788392         3.138585
 C        -2.165654         0.561241         2.472160
 C        -0.803601        -0.194551         2.223370
 H         0.627150        -0.242208        -0.563765
 H        -2.026142         0.229766        -1.012426
 H        -2.110512        -1.068102         0.249182
 H        -3.502118         1.274721         0.665315
 H        -1.206678         2.352467        -0.107569
 H        -0.049266         2.291072         2.670407
 H        -1.197900         3.637207         2.168813
 H        -2.974096        -0.017894         3.061211
 H        -0.004464         0.239223         2.922704
 H        -0.756518        -1.282598         2.248464
