19
Iteration:  3859charge 0 multiplicity 1
 O         0.755778         0.233308         0.174368
 C        -0.589274         0.435273         0.674539
 C        -1.858708         0.024379        -0.042521
 C        -2.521711         1.015455         0.983341
 C        -1.179027         1.853836         0.909743
 C        -1.126413         2.559163         2.236317
 O        -1.867411         1.657306         3.190847
 C        -2.095849         0.513392         2.506507
 C        -0.877769        -0.196452         2.072175
 H         0.977081        -0.775972         0.471807
 H        -2.082685         0.450939        -1.038116
 H        -2.282285        -1.035733         0.159147
 H        -3.504244         1.473840         0.910466
 H        -1.357761         2.523678        -0.013334
 H        -0.151684         2.949691         2.585206
 H        -1.744243         3.461948         2.199986
 H        -2.900950         0.011497         3.025073
 H        -0.108415         0.027259         2.765088
 H        -0.959706        -1.288037         2.021803
