19
Iteration:  2044
 O         0.702050         0.388329         0.180470
 C        -0.573432         0.407918         0.755972
 C        -1.911561        -0.061909         0.036032
 C        -2.559395         0.935997         1.061242
 C        -1.278220         1.838445         0.853986
 C        -1.066229         2.539271         2.154875
 O        -1.778083         1.722742         3.109005
 C        -2.147076         0.531737         2.428341
 C        -0.812580        -0.230599         2.186508
 H         0.920781        -0.609249        -0.009972
 H        -1.983445         0.204802        -1.012075
 H        -2.247302        -1.065410         0.156488
 H        -3.526696         1.407528         0.928026
 H        -1.133879         2.328869        -0.071890
 H        -0.123139         2.694216         2.632434
 H        -1.575542         3.594515         2.097856
 H        -2.935742         0.006831         2.976516
 H        -0.124286        -0.004402         2.948460
 H        -0.762176        -1.348255         2.012767
