19
Iteration:  2848
 O         0.567185         0.263545         0.060325
 C        -0.587127         0.425987         0.794601
 C        -1.801701        -0.108604         0.062524
 C        -2.493282         0.957096         0.905736
 C        -1.235046         1.871540         0.882924
 C        -1.074783         2.580413         2.224311
 O        -1.858539         1.711171         3.169357
 C        -2.154876         0.483380         2.414994
 C        -0.787842        -0.206902         2.156920
 H         1.275946         0.842607         0.642189
 H        -1.778228         0.161160        -0.998281
 H        -2.238670        -1.065500         0.291344
 H        -3.489644         1.384206         0.708352
 H        -1.023354         2.477534         0.046541
 H        -0.022855         2.680227         2.718491
 H        -1.442156         3.618313         2.413543
 H        -2.982745        -0.087697         3.076137
 H        -0.130567         0.152390         3.062455
 H        -0.789391        -1.290439         2.063356
