19
Iteration:  1710charge 0 multiplicity 1
 O         0.692415         0.205770         0.164693
 C        -0.525961         0.451233         0.660275
 C        -1.839274         0.010701         0.022006
 C        -2.569837         0.961881         1.024774
 C        -1.248220         1.819951         0.880789
 C        -1.103574         2.461303         2.254003
 O        -1.810905         1.741513         3.235557
 C        -2.199299         0.473556         2.395971
 C        -0.859127        -0.155009         2.125761
 H         1.193762         0.985995        -0.273662
 H        -1.838747         0.391239        -0.992938
 H        -2.160407        -1.046928         0.064905
 H        -3.459913         1.464227         0.691543
 H        -1.181408         2.500769         0.031337
 H        -0.058146         2.397705         2.555985
 H        -1.461991         3.497840         2.157648
 H        -2.894729        -0.024227         3.014615
 H        -0.146507         0.137451         2.949093
 H        -0.847542        -1.242562         2.052710
