19
Iteration:  4697
 O         0.710136         0.198933         0.225813
 C        -0.582599         0.377439         0.755005
 C        -1.932301         0.098206        -0.014003
 C        -2.439725         1.025046         1.036183
 C        -1.194169         1.862868         0.976485
 C        -1.220860         2.609818         2.264858
 O        -1.759837         1.687332         3.153333
 C        -2.171960         0.440624         2.337997
 C        -0.801114        -0.310516         2.083966
 H         0.716651         0.665234        -0.733710
 H        -1.967318         0.554552        -1.001180
 H        -2.207046        -0.865220        -0.061662
 H        -3.429001         1.508319         0.924548
 H        -0.910989         2.481834         0.139379
 H        -0.250282         2.992389         2.612815
 H        -1.931953         3.489140         2.039769
 H        -2.883434        -0.145539         2.836640
 H        -0.103279        -0.192683         2.929201
 H        -1.011456        -1.409663         1.983935
