19
Iteration:  2315charge 0 multiplicity 1
 O         0.722990         0.163763         0.161415
 C        -0.565865         0.424588         0.724597
 C        -1.893608         0.097091        -0.018024
 C        -2.559264         0.868635         1.070442
 C        -1.358222         1.841690         0.862811
 C        -1.124685         2.605070         2.163088
 O        -1.857217         1.784898         3.139432
 C        -2.081810         0.469241         2.507104
 C        -0.757432        -0.200252         2.084979
 H         1.285041         0.340582         0.858828
 H        -1.902253         0.368980        -1.120975
 H        -2.076408        -1.065590        -0.092219
 H        -3.571674         1.123343         0.936358
 H        -1.415115         2.501092         0.063660
 H         0.034598         2.645461         2.310498
 H        -1.450718         3.540924         2.496344
 H        -2.828870        -0.044477         3.123986
 H         0.109749        -0.050404         2.772274
 H        -0.842719        -1.302723         2.105977
