19
Iteration:  1730
 O         0.757164         0.213184         0.161537
 C        -0.627300         0.419235         0.733683
 C        -1.918984        -0.000753        -0.061750
 C        -2.571994         0.928832         1.017703
 C        -1.324910         1.875921         0.893708
 C        -0.951542         2.525530         2.251315
 O        -1.874199         1.736344         3.127974
 C        -2.138644         0.497305         2.463492
 C        -0.822572        -0.204357         2.154161
 H         1.189526         1.173847         0.314193
 H        -1.903423         0.452728        -0.951899
 H        -2.005014        -1.076034        -0.050634
 H        -3.664490         1.256357         0.821882
 H        -1.273032         2.449094        -0.040289
 H         0.037180         2.367105         2.501270
 H        -1.384930         3.557501         2.459049
 H        -2.900780        -0.037105         3.102637
 H         0.017025         0.005009         2.843393
 H        -0.863857        -1.338251         1.952082
