19
Iteration:   786charge 0 multiplicity 1
 O         0.787031         0.349767         0.235398
 C        -0.591405         0.333023         0.701365
 C        -1.920537        -0.014127        -0.026716
 C        -2.608922         1.042568         0.998758
 C        -1.192557         1.829749         0.942486
 C        -1.013319         2.454281         2.242196
 O        -1.811286         1.697774         3.174559
 C        -2.265835         0.547287         2.411283
 C        -0.829086        -0.195666         2.085300
 H         0.913177        -0.528066        -0.050272
 H        -1.902547         0.644361        -1.036873
 H        -2.317555        -1.002872        -0.248315
 H        -3.519658         1.528007         0.839670
 H        -1.184852         2.449611         0.089565
 H         0.054689         2.538369         2.686228
 H        -1.497319         3.320447         2.038834
 H        -2.997603         0.063292         3.127236
 H        -0.070571         0.061256         2.883336
 H        -0.919213        -1.288518         1.873877
