19
Iteration:  2988charge 0 multiplicity 1
 O         0.681257         0.590422         0.675904
 C        -0.699445         1.005780         0.491245
 C        -1.848338        -0.019669         0.884616
 C        -2.800779         0.812607         0.019528
 C        -1.563396         1.086249        -0.882356
 O        -1.650491         2.347112        -1.627511
 C        -2.716316         3.065118        -0.698187
 C        -2.706465         2.295164         0.603903
 C        -1.240688         2.288907         1.169339
 H         1.186592         0.709102        -0.181999
 H        -1.585928        -0.983407         0.501684
 H        -2.001137        -0.099245         2.014348
 H        -3.764808         0.456090        -0.344431
 H        -1.096605         0.293226        -1.555070
 H        -2.308943         4.102662        -0.535712
 H        -3.703393         3.079221        -1.146502
 H        -3.362586         2.496463         1.446712
 H        -0.544348         3.199685         0.969782
 H        -1.223772         2.155197         2.274002
