19
Iteration:  2938
 O         0.613630         0.663841         0.526273
 C        -0.696220         0.972926         0.505125
 C        -1.859207        -0.064682         0.990081
 C        -2.871282         0.767233         0.149243
 C        -1.520663         1.096148        -0.909053
 O        -1.622544         2.393756        -1.556593
 C        -2.599127         3.096499        -0.747547
 C        -2.644384         2.235408         0.505361
 C        -1.276579         2.245271         1.136867
 H         1.143418         1.370575         0.838486
 H        -1.689348        -1.106899         0.606313
 H        -2.053152        -0.227955         2.060711
 H        -3.831605         0.410991        -0.291605
 H        -1.345050         0.395104        -1.673005
 H        -2.295848         4.123400        -0.556399
 H        -3.647343         2.909389        -1.086438
 H        -3.456753         2.597618         1.182278
 H        -0.708863         3.102289         0.914907
 H        -1.177053         2.137365         2.196636
