19
Iteration:  2299charge 0 multiplicity 1
 O         0.564131         0.700434         0.648276
 C        -0.749987         1.011803         0.499155
 C        -1.797585        -0.003054         0.922521
 C        -2.629370         0.833807         0.140178
 C        -1.546626         1.026711        -0.913517
 O        -1.771718         2.193193        -1.639752
 C        -2.550607         3.087946        -0.755685
 C        -2.665262         2.313900         0.556137
 C        -1.293555         2.244821         1.205279
 H         0.967346         1.313711        -0.029899
 H        -1.524032        -0.906231         0.420585
 H        -2.119449        -0.161066         1.925178
 H        -3.653088         0.528175        -0.193125
 H        -1.309698         0.251590        -1.607271
 H        -1.970330         4.075220        -0.706828
 H        -3.504912         3.515450        -1.227831
 H        -3.528032         2.569653         1.153855
 H        -0.697289         3.209093         1.283782
 H        -1.362458         1.927481         2.270983
