19
Iteration:  2187charge 0 multiplicity 1
 O         0.535196         0.638098         0.688282
 C        -0.714682         1.011911         0.564261
 C        -1.772657         0.001426         0.938410
 C        -2.714216         0.699828         0.048824
 C        -1.591169         1.022619        -0.961514
 O        -1.804263         2.292680        -1.697556
 C        -2.579292         3.092577        -0.782097
 C        -2.674222         2.315978         0.601307
 C        -1.136882         2.324726         1.247504
 H         1.095056         1.329250         0.350573
 H        -1.675390        -1.042467         0.501478
 H        -1.985792        -0.037317         1.955220
 H        -3.636185         0.279448        -0.312396
 H        -1.241981         0.162327        -1.591165
 H        -2.204032         4.148292        -0.681772
 H        -3.538707         3.416686        -1.311147
 H        -3.434645         2.621097         1.233717
 H        -0.565152         3.207746         0.965313
 H        -1.133511         2.206808         2.430814
