19
Iteration:   933charge 0 multiplicity 1
 O         0.580222         0.735614         0.442024
 C        -0.771555         0.998420         0.510411
 C        -1.852950        -0.048946         1.004794
 C        -2.718333         0.798704         0.079966
 C        -1.500750         1.031027        -0.863365
 O        -1.702437         2.265659        -1.651888
 C        -2.459676         3.112647        -0.751443
 C        -2.689054         2.330516         0.494095
 C        -1.351727         2.201875         1.352803
 H         0.887287         0.876600         1.357927
 H        -1.632818        -1.076931         0.641553
 H        -2.209492        -0.014499         1.962129
 H        -3.601422         0.307762        -0.327552
 H        -1.206111         0.307816        -1.646300
 H        -1.833183         4.007705        -0.634415
 H        -3.442206         3.375252        -1.243657
 H        -3.474904         2.818602         1.037232
 H        -0.708302         3.104856         1.067317
 H        -1.512601         1.999812         2.477970
