19
Iteration:   963charge 0 multiplicity 1
 O         0.624062         0.570354         0.666727
 C        -0.737902         0.992573         0.490513
 C        -1.823671         0.019918         0.886096
 C        -2.776523         0.837221         0.022971
 C        -1.546359         1.074897        -0.899623
 O        -1.689900         2.290574        -1.532713
 C        -2.614502         3.063539        -0.750889
 C        -2.695418         2.300208         0.504114
 C        -1.210285         2.259857         1.219440
 H         1.046295         1.405670         0.900589
 H        -1.607803        -0.944506         0.468236
 H        -2.175511        -0.048665         1.952321
 H        -3.724468         0.425933        -0.412144
 H        -1.264952         0.299332        -1.637265
 H        -2.256979         4.126986        -0.730774
 H        -3.621318         3.158932        -1.280436
 H        -3.449847         2.675000         1.139111
 H        -0.693124         3.068523         0.797582
 H        -1.158641         2.290255         2.262382
