19
Iteration:  3684charge 0 multiplicity 1
 O         0.643042         0.632256         0.651642
 C        -0.743582         1.004366         0.451872
 C        -1.841069        -0.007417         0.938959
 C        -2.869545         0.788614         0.043515
 C        -1.525066         1.026332        -0.852550
 O        -1.655690         2.270093        -1.581603
 C        -2.615308         3.047744        -0.764190
 C        -2.689021         2.383120         0.606299
 C        -1.245485         2.270876         1.155892
 H         1.319117         1.307732         0.348347
 H        -1.553564        -0.890450         0.349900
 H        -2.003979        -0.214251         2.040719
 H        -3.764436         0.355965        -0.379239
 H        -1.209696         0.436376        -1.748823
 H        -2.237548         4.134861        -0.690922
 H        -3.611663         2.912537        -1.191301
 H        -3.374799         2.824716         1.396520
 H        -0.609594         3.166263         0.831624
 H        -1.221936         2.178261         2.241171
