19
Iteration:  1592charge 0 multiplicity 1
 O         0.682614         0.621455         0.490412
 C        -0.711039         1.021856         0.460697
 C        -1.874982         0.031997         0.957209
 C        -2.801102         0.806623         0.014844
 C        -1.568525         1.069369        -0.823700
 O        -1.549941         2.309188        -1.440296
 C        -2.653379         3.064422        -0.807184
 C        -2.744887         2.277821         0.529484
 C        -1.264484         2.283321         1.163456
 H         0.978415         0.619387         1.453891
 H        -1.686296        -1.094390         0.786321
 H        -2.327972        -0.036419         1.920838
 H        -3.854138         0.255159        -0.187559
 H        -1.310787         0.278784        -1.548176
 H        -2.334972         4.157396        -0.647341
 H        -3.472800         3.029691        -1.461608
 H        -3.615822         2.627701         1.214922
 H        -0.538892         3.140900         0.696270
 H        -1.347222         2.286891         2.299439
