19
Iteration:  4763charge 0 multiplicity 1
 O         0.587472         0.596101         0.637914
 C        -0.773678         0.890433         0.453795
 C        -1.908702        -0.008878         0.938507
 C        -2.774315         0.861276         0.027120
 C        -1.505720         1.057383        -0.945813
 O        -1.624575         2.344694        -1.479225
 C        -2.628247         3.062996        -0.791603
 C        -2.652325         2.312094         0.606486
 C        -1.222520         2.310169         1.175112
 H         1.122921         1.330370         0.281290
 H        -1.688740        -1.084828         0.640553
 H        -2.014899        -0.023232         2.033274
 H        -3.782707         0.517940        -0.161486
 H        -1.302235         0.241777        -1.662666
 H        -2.193523         4.085058        -0.731722
 H        -3.540574         2.941831        -1.426139
 H        -3.529314         2.449202         1.355639
 H        -0.765925         3.140725         0.549398
 H        -0.942438         2.338496         2.297256
