19
Iteration:  4719
 O         0.543525         0.611315         0.526407
 C        -0.782051         0.959360         0.593585
 C        -1.756337        -0.080768         0.950510
 C        -2.760092         0.823313         0.110549
 C        -1.555389         1.015263        -0.918755
 O        -1.559428         2.298924        -1.602489
 C        -2.509921         3.162202        -0.806276
 C        -2.783926         2.308827         0.606618
 C        -1.294098         2.316399         1.230391
 H         0.980276         1.318788         0.016876
 H        -1.732161        -1.117960         0.514418
 H        -2.219049        -0.050358         1.930829
 H        -3.724074         0.529777        -0.150679
 H        -1.268102         0.255741        -1.622803
 H        -2.078217         4.188166        -0.678110
 H        -3.615679         3.112331        -1.225235
 H        -3.651855         2.701290         1.236427
 H        -0.693286         3.187899         0.917613
 H        -1.254131         2.068817         2.351882
