19
Iteration:  2190charge 0 multiplicity 1
 O         0.553257         0.618389         0.682538
 C        -0.739280         0.990389         0.567373
 C        -1.755941        -0.007044         0.922167
 C        -2.702363         0.680359         0.029391
 C        -1.587255         1.017808        -0.936987
 O        -1.813163         2.307432        -1.686760
 C        -2.571050         3.096784        -0.788990
 C        -2.676946         2.346382         0.601369
 C        -1.148993         2.350683         1.245881
 H         1.127699         1.340447         0.373019
 H        -1.620944        -1.055451         0.549212
 H        -2.094322        -0.023805         1.967257
 H        -3.698661         0.256772        -0.251659
 H        -1.269069         0.221807        -1.600979
 H        -2.194277         4.180325        -0.730350
 H        -3.489641         3.210013        -1.295979
 H        -3.490313         2.657075         1.376218
 H        -0.553670         3.279425         0.923425
 H        -1.197951         2.228903         2.346780
