19
Iteration:  4212
 O         0.630952         0.605496         0.606876
 C        -0.801979         0.955618         0.542178
 C        -1.873149        -0.109869         0.977640
 C        -2.718599         0.808841         0.053742
 C        -1.555739         1.031851        -0.873342
 O        -1.659292         2.312982        -1.567798
 C        -2.628868         3.124808        -0.769827
 C        -2.612338         2.353018         0.532616
 C        -1.239211         2.342911         1.122143
 H         1.111215         1.446484         0.640570
 H        -1.701144        -1.046174         0.433899
 H        -2.189648        -0.226801         2.049955
 H        -3.688476         0.459992        -0.260831
 H        -1.293495         0.377148        -1.683209
 H        -2.448674         4.220583        -0.607403
 H        -3.669859         2.885262        -1.267132
 H        -3.408605         2.554464         1.141185
 H        -0.721196         3.270602         1.042444
 H        -1.191119         2.091398         2.136192
