19
Iteration:  3976charge 0 multiplicity 1
 O         0.589978         0.648396         0.567574
 C        -0.759987         1.011209         0.419869
 C        -1.847961        -0.068315         0.998388
 C        -2.758291         0.771771         0.082178
 C        -1.594567         1.037861        -0.833838
 O        -1.610998         2.309832        -1.532325
 C        -2.545357         3.125269        -0.820374
 C        -2.717451         2.249753         0.544157
 C        -1.258027         2.300139         1.177671
 H         1.190601         1.444263         0.428199
 H        -1.760128        -1.090049         0.626102
 H        -2.115500        -0.150638         2.061947
 H        -3.660233         0.446283        -0.347711
 H        -1.376243         0.205490        -1.531854
 H        -2.137450         4.096390        -0.578300
 H        -3.505756         3.206775        -1.429429
 H        -3.310208         2.748284         1.332990
 H        -0.682715         3.121284         1.013723
 H        -1.342843         2.321126         2.314519
