19
Iteration:   645charge 0 multiplicity 1
 O         0.659300         0.540892         0.626834
 C        -0.744957         0.989039         0.521063
 C        -1.850971         0.022676         1.064070
 C        -2.754687         0.809014         0.019545
 C        -1.502821         1.026557        -0.930768
 O        -1.677398         2.370508        -1.596330
 C        -2.642111         3.070958        -0.740741
 C        -2.699475         2.293973         0.500151
 C        -1.270455         2.273254         1.147823
 H         1.112849         1.328239         0.341428
 H        -1.594995        -0.950733         0.767848
 H        -2.134401         0.106151         2.146102
 H        -3.826462         0.496782        -0.394148
 H        -1.121947         0.128906        -1.505288
 H        -2.338216         4.143397        -0.638668
 H        -3.609017         3.072002        -1.234087
 H        -3.467886         2.557214         1.148013
 H        -0.722805         3.198630         0.877318
 H        -1.236569         2.323376         2.300996
