19
Iteration:  2985
 O         0.695855         0.582166         0.681188
 C        -0.715152         1.027120         0.464723
 C        -1.863548        -0.003581         0.877635
 C        -2.798811         0.809604         0.009211
 C        -1.564407         1.060259        -0.860525
 O        -1.669048         2.343838        -1.596788
 C        -2.705230         3.083314        -0.682338
 C        -2.671911         2.275121         0.572515
 C        -1.240834         2.301229         1.159688
 H         1.193841         0.723188        -0.154840
 H        -1.522913        -0.967420         0.505413
 H        -2.000907        -0.133203         1.906580
 H        -3.801765         0.537112        -0.318636
 H        -1.065071         0.275924        -1.561592
 H        -2.327422         4.025074        -0.533511
 H        -3.674527         2.967894        -1.163395
 H        -3.322908         2.588759         1.491447
 H        -0.720807         3.171971         1.007211
 H        -1.284695         2.177375         2.254773
