19
Iteration:  2983charge 0 multiplicity 1
 O         0.701742         0.578113         0.682073
 C        -0.729592         1.041931         0.447950
 C        -1.868852         0.008087         0.871738
 C        -2.791544         0.809552         0.004077
 C        -1.556303         1.040013        -0.856021
 O        -1.687805         2.339935        -1.565963
 C        -2.693292         3.087770        -0.674406
 C        -2.646848         2.259911         0.556455
 C        -1.242157         2.301646         1.155627
 H         1.177960         0.737440        -0.110283
 H        -1.489200        -0.984002         0.480911
 H        -2.027158        -0.156266         1.896523
 H        -3.828558         0.586879        -0.310549
 H        -1.112433         0.308536        -1.534234
 H        -2.321441         4.075222        -0.537227
 H        -3.668329         2.905821        -1.199386
 H        -3.289814         2.642966         1.434517
 H        -0.809756         3.238362         0.997003
 H        -1.327193         2.187531         2.235702
