19
Iteration:  3088charge 0 multiplicity 1
 O         0.640454         0.601609         0.572104
 C        -0.722282         0.984485         0.465799
 C        -1.795777        -0.065253         0.946762
 C        -2.757996         0.857901         0.057986
 C        -1.561946         1.084119        -0.896701
 O        -1.715966         2.341588        -1.558132
 C        -2.611187         3.053031        -0.782651
 C        -2.673143         2.250274         0.596873
 C        -1.245942         2.286314         1.222521
 H         1.108587         1.387291         0.789190
 H        -1.842103        -1.055842         0.479349
 H        -2.046088        -0.063982         2.058706
 H        -3.750892         0.613352        -0.373007
 H        -1.303123         0.230107        -1.542038
 H        -2.318030         4.166779        -0.848452
 H        -3.583964         3.092249        -1.177997
 H        -3.513213         2.591798         1.169353
 H        -0.676259         3.225027         0.896034
 H        -1.261299         2.124754         2.269928
