19
Iteration:  1300
 O         0.579376         0.595118         0.692949
 C        -0.774185         1.000004         0.474504
 C        -1.822595         0.013195         0.929598
 C        -2.755402         0.856886         0.000410
 C        -1.503366         1.047207        -0.873254
 O        -1.563055         2.399913        -1.453270
 C        -2.695124         3.044003        -0.818196
 C        -2.733304         2.254576         0.594189
 C        -1.203738         2.339188         1.052272
 H         0.697154        -0.217467         0.112440
 H        -1.549432        -0.951914         0.551080
 H        -2.129496         0.065290         2.068763
 H        -3.700642         0.318722        -0.224005
 H        -1.195658         0.275003        -1.558485
 H        -2.581071         4.120511        -0.841096
 H        -3.605952         2.694572        -1.242504
 H        -3.530603         2.550905         1.226773
 H        -0.546071         3.255749         0.781323
 H        -1.079061         2.135859         2.255754
