19
Iteration:  1599
 O         0.690556         0.586659         0.530826
 C        -0.687067         0.989582         0.504855
 C        -1.850618         0.035724         0.924856
 C        -2.835205         0.769492         0.014877
 C        -1.563002         1.061772        -0.901896
 O        -1.569097         2.336748        -1.472409
 C        -2.677687         3.057087        -0.765337
 C        -2.759073         2.334260         0.532330
 C        -1.275260         2.304546         1.165924
 H         1.019276         0.548444         1.475136
 H        -1.459865        -1.032397         0.808747
 H        -2.136655         0.083900         2.032629
 H        -3.762167         0.475940        -0.312007
 H        -1.334138         0.166897        -1.482345
 H        -2.238555         4.005074        -0.653971
 H        -3.521466         3.019865        -1.491576
 H        -3.535641         2.655713         1.225528
 H        -0.845798         3.127730         0.754654
 H        -1.165768         2.363925         2.267190
