19
Iteration:   440
 O         0.580365         0.781277         0.524054
 C        -0.764815         1.001091         0.557130
 C        -1.860575        -0.042817         1.010750
 C        -2.738783         0.860118         0.072280
 C        -1.576928         0.997082        -0.888061
 O        -1.703856         2.202629        -1.638228
 C        -2.392248         3.124536        -0.783933
 C        -2.642737         2.289951         0.506123
 C        -1.368782         2.198317         1.300874
 H         0.959215         1.449904        -0.075116
 H        -1.696783        -1.039966         0.583099
 H        -2.109304        -0.158948         2.141995
 H        -3.724564         0.421486        -0.271856
 H        -1.123737         0.144297        -1.494561
 H        -1.874508         4.018552        -0.575671
 H        -3.304028         3.412667        -1.255231
 H        -3.563072         2.731999         1.013175
 H        -0.756522         3.057346         1.347040
 H        -1.510409         1.897227         2.381201
