19
Iteration:  4458charge 0 multiplicity 1
 O         0.594038         0.577216         0.641898
 C        -0.745329         0.959043         0.452444
 C        -1.856654         0.017359         0.958607
 C        -2.723608         0.894700         0.048987
 C        -1.461483         1.027480        -0.902972
 O        -1.644233         2.333505        -1.498355
 C        -2.662391         3.036105        -0.770603
 C        -2.703764         2.344225         0.533073
 C        -1.279035         2.271297         1.147768
 H         1.180259         1.125546         0.121710
 H        -1.872754        -0.974062         0.550634
 H        -2.012198        -0.092578         2.033578
 H        -3.586399         0.418251        -0.295839
 H        -1.108835         0.269728        -1.503271
 H        -2.233873         4.057773        -0.822079
 H        -3.701083         2.940478        -1.025988
 H        -3.539377         2.539614         1.261942
 H        -0.726677         3.234928         0.890402
 H        -1.224791         2.123650         2.160625
