19
Iteration:  4111charge 0 multiplicity 1
 O         0.573587         0.685545         0.582809
 C        -0.770379         0.941252         0.486474
 C        -1.788282         0.009204         0.940128
 C        -2.806522         0.826088         0.088233
 C        -1.630083         1.032987        -0.872604
 O        -1.587117         2.280312        -1.572917
 C        -2.530511         3.058368        -0.788796
 C        -2.718061         2.341754         0.589357
 C        -1.228502         2.237049         1.207850
 H         1.170482         1.414226         0.373867
 H        -1.628393        -0.962311         0.407173
 H        -2.001114        -0.194616         2.015350
 H        -3.794997         0.357360        -0.202936
 H        -1.286439         0.271319        -1.553947
 H        -2.082493         4.094080        -0.940482
 H        -3.662308         3.110108        -1.316086
 H        -3.563607         2.619529         1.279550
 H        -0.753936         3.104339         0.894988
 H        -1.327387         2.187470         2.351069
