19
Iteration:  3226
 O         0.573996         0.691127         0.606662
 C        -0.772734         0.997463         0.449273
 C        -1.852226        -0.027549         0.945063
 C        -2.776873         0.769517         0.066493
 C        -1.566977         1.029528        -0.975257
 O        -1.663935         2.310359        -1.630365
 C        -2.572797         3.076132        -0.683221
 C        -2.619660         2.247760         0.641765
 C        -1.235219         2.307349         1.214332
 H         1.155748         1.454796         0.346190
 H        -1.613491        -0.881475         0.398516
 H        -1.880193        -0.228666         1.999882
 H        -3.830596         0.624205        -0.106355
 H        -1.300139         0.169066        -1.680437
 H        -2.291724         4.058171        -0.697424
 H        -3.589135         3.040781        -1.138076
 H        -3.489210         2.533524         1.316532
 H        -0.621191         3.147957         0.949719
 H        -1.161260         2.071740         2.360255
