19
Iteration:  1461charge 0 multiplicity 1
 O         0.599187         0.563033         0.681009
 C        -0.741257         0.916377         0.517820
 C        -1.826664        -0.061674         0.964297
 C        -2.780332         0.841753         0.075131
 C        -1.572972         1.077898        -0.872213
 O        -1.561175         2.391809        -1.479280
 C        -2.716899         3.057458        -0.847518
 C        -2.732264         2.308285         0.514101
 C        -1.171344         2.317298         1.070720
 H         1.260805         1.186778         0.288406
 H        -1.582733        -0.998404         0.462589
 H        -2.158567        -0.154877         1.940641
 H        -3.816712         0.419474        -0.061043
 H        -1.129668         0.472480        -1.613484
 H        -2.395815         4.102215        -0.566523
 H        -3.634760         2.898284        -1.541134
 H        -3.589922         2.659324         1.144945
 H        -0.539833         3.209011         0.833323
 H        -1.334269         2.254664         2.096212
