19
Iteration:  3635
 O         0.537234         0.687813         0.550295
 C        -0.818696         1.024674         0.455382
 C        -1.808731        -0.043682         0.984393
 C        -2.793714         0.735879         0.031497
 C        -1.563454         1.042119        -0.800286
 O        -1.607043         2.304704        -1.582631
 C        -2.555110         3.071222        -0.743768
 C        -2.668159         2.291362         0.493154
 C        -1.213653         2.281851         1.205431
 H         1.043343         1.426340         0.231357
 H        -1.551609        -1.096990         0.698243
 H        -2.138692         0.217267         1.980096
 H        -3.785143         0.195109        -0.104701
 H        -1.232463         0.275182        -1.430973
 H        -1.971708         3.938576        -0.504375
 H        -3.671730         3.225948        -1.113286
 H        -3.323530         2.756734         1.183151
 H        -0.716311         3.195067         1.120546
 H        -1.294602         1.960797         2.214788
