19
Iteration:  2328
 O         0.686133         0.656783         0.644506
 C        -0.728761         0.982555         0.520703
 C        -1.832241        -0.053976         0.946263
 C        -2.747635         0.787431         0.099789
 C        -1.638268         1.023888        -0.879880
 O        -1.734542         2.287130        -1.656609
 C        -2.559349         3.073827        -0.732114
 C        -2.665396         2.284610         0.511397
 C        -1.246374         2.339025         1.164303
 H         0.914362         1.574651         0.500746
 H        -1.479825        -1.097643         0.543536
 H        -2.043692        -0.055462         2.023469
 H        -3.698701         0.621890        -0.320204
 H        -1.412230         0.231208        -1.648394
 H        -1.991242         3.947217        -0.498055
 H        -3.634983         3.257204        -1.058433
 H        -3.561937         2.598966         1.014042
 H        -0.764243         3.249737         1.054236
 H        -1.351283         2.133390         2.287216
