19
Iteration:  4693charge 0 multiplicity 1
 O         0.592486         0.682960         0.638006
 C        -0.756341         0.979485         0.476349
 C        -1.871410         0.007600         0.864081
 C        -2.841907         0.836463         0.073967
 C        -1.494784         1.039131        -0.874303
 O        -1.719820         2.256547        -1.511878
 C        -2.481821         3.094632        -0.759183
 C        -2.676562         2.264556         0.527735
 C        -1.231634         2.240014         1.165273
 H         1.133290         1.369104         0.232082
 H        -1.841415        -1.059309         0.600351
 H        -2.096776        -0.064383         1.969709
 H        -3.900024         0.609027        -0.286886
 H        -1.137102         0.295448        -1.643221
 H        -1.974365         4.008892        -0.614881
 H        -3.447026         3.213227        -1.131458
 H        -3.401307         2.720909         1.149513
 H        -0.668950         3.149065         0.965651
 H        -1.194716         1.996915         2.328460
