19
Iteration:  1203
 O         0.634767         0.840232         0.580929
 C        -0.731991         0.982725         0.499184
 C        -1.880096        -0.044871         0.894572
 C        -2.748635         0.844683         0.047639
 C        -1.557366         0.983895        -0.845472
 O        -1.679476         2.235659        -1.584152
 C        -2.428064         3.106040        -0.732227
 C        -2.730356         2.313276         0.506540
 C        -1.325804         2.221315         1.266496
 H         0.784090        -0.147045         0.422492
 H        -1.892541        -1.019126         0.482746
 H        -2.101144        -0.122455         1.984282
 H        -3.749815         0.653835        -0.414912
 H        -1.199738         0.288456        -1.642300
 H        -1.981444         4.094984        -0.502115
 H        -3.502835         3.227141        -1.288543
 H        -3.503344         2.587299         1.168934
 H        -0.674373         3.104774         1.108067
 H        -1.448588         2.059380         2.363811
