19
Iteration:    78charge 0 multiplicity 1
 O         0.619518         0.604697         0.497007
 C        -0.742606         0.987173         0.511256
 C        -1.863271         0.022556         0.932304
 C        -2.729108         0.834025         0.054331
 C        -1.515433         1.042233        -0.853031
 O        -1.630875         2.316042        -1.472261
 C        -2.610073         3.093767        -0.804091
 C        -2.731122         2.305189         0.473358
 C        -1.254617         2.279450         1.218760
 H         0.982380         0.680105         1.409770
 H        -1.767644        -0.954055         0.568261
 H        -2.221635         0.016559         1.982835
 H        -3.690975         0.380084        -0.267261
 H        -1.225930         0.266188        -1.612611
 H        -2.278922         4.116415        -0.650941
 H        -3.506291         3.110884        -1.316132
 H        -3.614071         2.510065         1.128227
 H        -0.631857         3.114854         0.938826
 H        -1.320868         2.074178         2.294948
