19
Iteration:  1283
 O         0.616046         0.689055         0.699166
 C        -0.742448         0.865846         0.519393
 C        -1.895513        -0.052520         0.981270
 C        -2.746492         0.794878         0.066022
 C        -1.516297         1.105478        -0.891028
 O        -1.592499         2.391768        -1.521947
 C        -2.712080         3.015997        -0.793489
 C        -2.646605         2.322984         0.477577
 C        -1.232791         2.298409         1.157326
 H         0.882344         0.050123        -0.033262
 H        -1.813204        -1.052982         0.452476
 H        -2.054609        -0.086506         2.006723
 H        -3.731786         0.659432        -0.384209
 H        -1.343542         0.464014        -1.837252
 H        -2.264067         4.048690        -0.726819
 H        -3.720339         2.998812        -1.385034
 H        -3.342818         2.725919         1.268650
 H        -0.709954         3.083678         0.723205
 H        -1.183800         2.424975         2.159662
