19
Iteration:  3346charge 0 multiplicity 1
 O         0.519572         0.698585         0.538390
 C        -0.776520         1.011094         0.458027
 C        -1.773004        -0.067758         0.913558
 C        -2.739085         0.783925         0.090405
 C        -1.504985         1.014550        -0.902022
 O        -1.664747         2.271472        -1.549202
 C        -2.587231         3.086165        -0.749786
 C        -2.676007         2.328983         0.593477
 C        -1.243780         2.320593         1.222351
 H         1.073651         1.379147         0.132409
 H        -1.729532        -1.060272         0.562523
 H        -1.942757        -0.089992         2.011035
 H        -3.725343         0.320282        -0.094485
 H        -1.255876         0.177563        -1.670719
 H        -2.205705         4.066244        -0.683726
 H        -3.506454         3.226889        -1.312231
 H        -3.479053         2.474674         1.400206
 H        -0.581057         3.162114         1.280717
 H        -1.534750         1.910585         2.304983
