19
Iteration:  4655charge 0 multiplicity 1
 O         0.570570         0.547893         0.672237
 C        -0.731219         1.011613         0.542045
 C        -1.821807        -0.058258         0.915092
 C        -2.784144         0.828094         0.058177
 C        -1.588623         1.041813        -0.932464
 O        -1.712857         2.344670        -1.538282
 C        -2.578885         3.075457        -0.772182
 C        -2.623728         2.315391         0.508739
 C        -1.201155         2.296072         1.144614
 H         1.148050         1.357114         0.789630
 H        -1.562701        -1.008225         0.422301
 H        -2.027841         0.020067         1.960087
 H        -3.760966         0.401632        -0.240836
 H        -1.152281         0.327324        -1.623183
 H        -2.308897         4.190338        -0.671332
 H        -3.553130         3.104959        -1.363831
 H        -3.470651         2.601710         1.230026
 H        -0.601940         3.230060         0.892338
 H        -1.297379         2.183533         2.167830
