19
Iteration:  4187
 O         0.583531         0.556073         0.669281
 C        -0.756159         1.006575         0.515060
 C        -1.827012         0.043670         0.875804
 C        -2.751964         0.831405         0.063653
 C        -1.530717         1.062088        -0.885973
 O        -1.606076         2.286823        -1.542494
 C        -2.678036         3.093205        -0.772317
 C        -2.713539         2.326681         0.604202
 C        -1.238503         2.250875         1.092504
 H         1.283598         1.206759         0.404206
 H        -1.507954        -0.941496         0.510710
 H        -1.897595        -0.048087         1.978417
 H        -3.704214         0.347919        -0.237879
 H        -1.376504         0.357431        -1.665283
 H        -2.474854         4.145774        -0.653165
 H        -3.589735         2.901264        -1.333554
 H        -3.550306         2.522924         1.313684
 H        -0.790291         3.158923         0.775339
 H        -0.898124         2.302437         2.239804
