19
Iteration:   318charge 0 multiplicity 1
 O         0.597780         0.740863         0.601970
 C        -0.757200         0.942495         0.495786
 C        -1.816474        -0.076499         1.001156
 C        -2.766940         0.837765         0.118030
 C        -1.601825         0.963273        -0.897849
 O        -1.649561         2.303483        -1.599415
 C        -2.579108         3.114163        -0.812217
 C        -2.676927         2.328492         0.476132
 C        -1.210934         2.216604         1.160089
 H         0.871647         1.199385         1.395817
 H        -1.824427        -1.022707         0.520417
 H        -1.973585         0.008782         2.148495
 H        -3.799018         0.480684        -0.247996
 H        -1.420193         0.225641        -1.770844
 H        -2.162485         4.027292        -0.522984
 H        -3.504811         3.363537        -1.369614
 H        -3.335360         2.772592         1.193935
 H        -0.564400         3.016351         1.124634
 H        -1.360270         2.118896         2.258143
