19
Iteration:  1172charge 0 multiplicity 1
 O         0.575187         0.712590         0.720874
 C        -0.760936         0.956332         0.498058
 C        -1.863763        -0.018367         0.902025
 C        -2.785106         0.774488         0.035126
 C        -1.563155         1.036217        -0.834527
 O        -1.591264         2.386713        -1.512114
 C        -2.626960         3.052523        -0.792206
 C        -2.698892         2.282665         0.518167
 C        -1.152489         2.266318         1.112035
 H         0.844540         0.093639         0.050701
 H        -1.804886        -1.140190         0.595655
 H        -2.044428         0.019947         1.970656
 H        -3.769674         0.589488        -0.436531
 H        -1.137307         0.499470        -1.745386
 H        -2.592559         4.147872        -0.670271
 H        -3.616365         2.923147        -1.211208
 H        -3.396535         2.653602         1.299952
 H        -0.496068         2.949612         0.696706
 H        -1.127187         2.296913         2.127356
