19
Iteration:  1911charge 0 multiplicity 1
 O         0.557555         0.608232         0.724373
 C        -0.733120         0.949515         0.484197
 C        -1.785104        -0.166944         0.948837
 C        -2.660983         0.806272         0.040090
 C        -1.525417         1.129249        -0.921725
 O        -1.762768         2.291100        -1.607362
 C        -2.636117         3.120736        -0.730459
 C        -2.657825         2.331396         0.557348
 C        -1.235701         2.351710         1.116695
 H         1.176927         1.196839         0.205661
 H        -1.637295        -1.083256         0.455494
 H        -2.127561        -0.268905         2.035411
 H        -3.727954         0.452551        -0.111809
 H        -1.234830         0.364692        -1.639074
 H        -2.224601         4.172153        -0.549019
 H        -3.622340         3.255958        -1.180154
 H        -3.490351         2.636725         1.165021
 H        -0.584835         3.139657         0.835279
 H        -1.251579         2.294613         2.246240
