19
Iteration:   573
 O         0.656827         0.728429         0.553467
 C        -0.726795         1.012152         0.499279
 C        -1.902576        -0.028696         0.983158
 C        -2.842899         0.854783         0.010435
 C        -1.504251         0.988521        -0.845151
 O        -1.659050         2.195014        -1.585032
 C        -2.512841         3.070487        -0.717236
 C        -2.691174         2.366651         0.567228
 C        -1.330533         2.229843         1.178287
 H         1.282786         1.393649         0.264663
 H        -1.729415        -1.059652         0.526846
 H        -2.110218         0.124592         2.032469
 H        -3.764490         0.506827        -0.309271
 H        -1.197174         0.196535        -1.488787
 H        -2.059680         4.026164        -0.610823
 H        -3.453468         3.149182        -1.232067
 H        -3.663217         2.685263         1.126842
 H        -0.680190         3.093620         1.134153
 H        -1.273098         1.998077         2.220402
