19
Iteration:  1623charge 0 multiplicity 1
 O         0.519048         0.616068         0.610726
 C        -0.717890         1.004535         0.468937
 C        -1.848827        -0.038027         0.971275
 C        -2.657847         0.800644         0.050666
 C        -1.465615         1.126745        -0.880548
 O        -1.715907         2.334908        -1.582010
 C        -2.678901         3.071849        -0.746734
 C        -2.625890         2.304100         0.505276
 C        -1.212175         2.294187         1.134446
 H         0.644125         0.600808         1.551189
 H        -1.587696        -1.114707         0.536743
 H        -2.237567        -0.231210         1.987405
 H        -3.705322         0.458835        -0.203446
 H        -1.195619         0.237887        -1.449533
 H        -2.258856         4.064310        -0.611821
 H        -3.555598         3.013699        -1.335834
 H        -3.484745         2.439765         1.271091
 H        -0.557876         3.080622         0.752297
 H        -1.241066         2.289598         2.267174
