19
Iteration:  1196
 O         0.637201         0.828885         0.609788
 C        -0.766547         1.023387         0.498123
 C        -1.921686        -0.065186         0.957782
 C        -2.703883         0.859827         0.033155
 C        -1.566686         1.023514        -0.936129
 O        -1.615795         2.224591        -1.572818
 C        -2.526969         3.073670        -0.738291
 C        -2.673031         2.292667         0.572433
 C        -1.318828         2.235259         1.237579
 H         0.655900        -0.128813         0.341716
 H        -1.898450        -1.116339         0.373436
 H        -2.178194        -0.276122         1.967843
 H        -3.682896         0.696885        -0.436046
 H        -1.247631         0.297949        -1.769108
 H        -2.024098         4.054661        -0.622540
 H        -3.474966         3.273580        -1.095796
 H        -3.566919         2.676212         1.199907
 H        -0.716293         3.061033         0.945356
 H        -1.288158         2.114134         2.283659
