19
Iteration:   136charge 0 multiplicity 1
 O         0.627574         0.842170         0.366355
 C        -0.821909         1.023368         0.570873
 C        -1.892796        -0.180200         0.979296
 C        -2.859153         0.853107        -0.010586
 C        -1.546084         0.985378        -0.801861
 O        -1.599889         2.175481        -1.500548
 C        -2.426547         3.081483        -0.738246
 C        -2.701708         2.362526         0.559713
 C        -1.287049         2.262847         1.205647
 H         1.082427         1.189241         1.158713
 H        -1.608472        -1.194603         0.566373
 H        -2.402816        -0.323582         1.972673
 H        -3.806498         0.616704        -0.606683
 H        -1.222949         0.131568        -1.480939
 H        -1.971961         4.105152        -0.652582
 H        -3.247874         3.336224        -1.355542
 H        -3.546555         2.719898         1.264113
 H        -0.699443         3.174730         1.081375
 H        -1.410687         2.117461         2.287411
