19
Iteration:  1248
 O         0.586754         0.838269         0.641998
 C        -0.808025         0.958395         0.475911
 C        -1.875768        -0.009592         0.887436
 C        -2.807492         0.842098         0.010597
 C        -1.522656         1.051281        -0.879658
 O        -1.673964         2.207171        -1.576469
 C        -2.465152         3.071725        -0.743297
 C        -2.630540         2.245164         0.554460
 C        -1.290515         2.276235         1.252373
 H         0.980794         0.046585         0.159841
 H        -1.663397        -0.991585         0.489157
 H        -1.989423        -0.107906         1.924776
 H        -3.786805         0.376947        -0.270312
 H        -1.379011         0.191842        -1.618794
 H        -1.782857         3.915071        -0.520353
 H        -3.497873         3.515630        -1.014901
 H        -3.448783         2.791334         0.991684
 H        -0.740977         3.168002         1.109389
 H        -1.312532         1.968142         2.280960
