19
Iteration:  2746charge 0 multiplicity 1
 O         0.665825         0.674425         0.544381
 C        -0.756811         1.004327         0.545765
 C        -1.845773        -0.023384         0.927818
 C        -2.826700         0.842320         0.022131
 C        -1.564821         0.975158        -0.859239
 O        -1.637293         2.247331        -1.545957
 C        -2.514844         3.016976        -0.734601
 C        -2.679755         2.333780         0.553274
 C        -1.322898         2.305076         1.188074
 H         1.033325         1.530110         0.286529
 H        -1.523753        -1.046376         0.572140
 H        -2.014569         0.087742         1.959570
 H        -3.836907         0.566901        -0.306149
 H        -1.469020         0.277687        -1.647611
 H        -2.390388         4.073987        -0.532753
 H        -3.516357         3.072783        -1.247730
 H        -3.373380         2.654651         1.260416
 H        -0.710109         3.127507         0.893492
 H        -1.328844         2.266588         2.341069
