19
Iteration:   836charge 0 multiplicity 1
 O         0.552541         0.510009         0.754269
 C        -0.769138         1.035487         0.577637
 C        -1.777007        -0.012000         0.972008
 C        -2.688391         0.751583        -0.020707
 C        -1.477798         1.137380        -0.881547
 O        -1.680171         2.382260        -1.596170
 C        -2.780271         3.107127        -0.747196
 C        -2.644040         2.277939         0.535873
 C        -1.169407         2.335768         1.066205
 H         0.801110         0.007657        -0.044078
 H        -1.450770        -1.084332         0.602073
 H        -2.221833        -0.174634         1.965995
 H        -3.635228         0.324952        -0.252024
 H        -1.287484         0.294697        -1.555130
 H        -2.399516         4.102816        -0.623572
 H        -3.638965         3.094459        -1.367244
 H        -3.469303         2.617872         1.215892
 H        -0.655668         3.252356         0.579669
 H        -1.142868         2.510438         2.202380
