19
Iteration:  2942
 O         0.613113         0.636938         0.548588
 C        -0.719473         0.983329         0.506255
 C        -1.837025        -0.087586         0.999767
 C        -2.888375         0.761536         0.134595
 C        -1.512010         1.108772        -0.885619
 O        -1.605635         2.400115        -1.609007
 C        -2.625182         3.134115        -0.732667
 C        -2.625195         2.224800         0.536695
 C        -1.283931         2.223458         1.122382
 H         1.145289         1.502157         0.707506
 H        -1.618626        -1.078932         0.610861
 H        -2.021365        -0.162921         2.046310
 H        -3.832547         0.431061        -0.273952
 H        -1.259177         0.206418        -1.647973
 H        -2.485402         4.179052        -0.508917
 H        -3.618540         3.020074        -1.128910
 H        -3.459557         2.641787         1.227846
 H        -0.745992         3.139321         0.784129
 H        -1.143099         2.164474         2.241117
