19
Iteration:  2623
 O         0.577379         0.734630         0.498104
 C        -0.763316         0.973088         0.488664
 C        -1.864989        -0.008615         0.998933
 C        -2.772770         0.859199         0.086522
 C        -1.501100         1.030598        -0.866285
 O        -1.613418         2.251919        -1.492853
 C        -2.502656         3.022806        -0.758094
 C        -2.691292         2.304703         0.579433
 C        -1.332181         2.244443         1.159566
 H         1.013581         1.571425         0.223812
 H        -1.732763        -0.966472         0.492361
 H        -2.144932        -0.183476         1.973813
 H        -3.792177         0.489816        -0.264969
 H        -1.214672         0.150320        -1.571877
 H        -2.184860         4.026245        -0.762929
 H        -3.553545         2.796081        -1.306935
 H        -3.582155         2.753734         1.128938
 H        -0.660705         2.936238         0.711502
 H        -1.245402         2.343183         2.304523
