19
Iteration:   559
 O         0.576958         0.589244         0.630298
 C        -0.771650         1.002383         0.564479
 C        -1.820983        -0.000707         0.942881
 C        -2.695852         0.815403         0.024661
 C        -1.526507         1.071049        -0.883862
 O        -1.712828         2.240004        -1.636019
 C        -2.586504         3.096101        -0.736013
 C        -2.685666         2.232586         0.545842
 C        -1.236950         2.358518         1.203575
 H         1.020282         1.360556         0.214321
 H        -1.733376        -1.018102         0.642334
 H        -2.104295        -0.091092         2.023195
 H        -3.698909         0.493128        -0.369319
 H        -1.129442         0.257165        -1.555608
 H        -2.050926         4.044885        -0.565806
 H        -3.569968         3.356184        -1.287665
 H        -3.378155         2.553696         1.212751
 H        -0.747066         3.215595         0.782554
 H        -1.362664         2.465178         2.329489
