19
Iteration:  4556charge 0 multiplicity 1
 O         0.551724         0.659028         0.598290
 C        -0.777847         0.977525         0.495707
 C        -1.782415        -0.082787         0.950243
 C        -2.785458         0.834885         0.013323
 C        -1.571635         1.016647        -0.787123
 O        -1.649214         2.269193        -1.603431
 C        -2.542374         3.143511        -0.796291
 C        -2.738092         2.344934         0.535188
 C        -1.243459         2.265491         1.254208
 H         1.121269         1.284954         0.108834
 H        -1.652071        -1.083136         0.457084
 H        -1.820404        -0.230124         2.034056
 H        -3.732636         0.608162        -0.389847
 H        -1.194973         0.212012        -1.325442
 H        -2.033262         4.169911        -0.630215
 H        -3.398685         3.157454        -1.344590
 H        -3.571102         2.623632         1.231854
 H        -0.471622         3.088763         0.950006
 H        -1.214096         2.129746         2.281289
