19
Iteration:  3055
 O         0.577925         0.694493         0.472912
 C        -0.783200         0.996475         0.476531
 C        -1.803142        -0.082796         0.982740
 C        -2.765128         0.797997         0.066308
 C        -1.543159         1.017606        -0.846654
 O        -1.621146         2.329867        -1.498627
 C        -2.572752         3.074140        -0.751689
 C        -2.650561         2.293455         0.580249
 C        -1.313079         2.253437         1.182550
 H         1.069240         1.486324         0.173802
 H        -1.795105        -1.087940         0.543503
 H        -2.012470        -0.158797         2.109006
 H        -3.762893         0.565526        -0.339161
 H        -1.254431         0.229641        -1.570374
 H        -2.100355         4.116820        -0.635941
 H        -3.501962         3.115545        -1.273982
 H        -3.538678         2.592644         1.092173
 H        -0.643658         3.190302         1.029757
 H        -1.410949         2.171371         2.275555
