19
Iteration:  2876charge 0 multiplicity 1
 O         0.620664         0.733293         0.529880
 C        -0.760238         0.973190         0.478216
 C        -1.770712        -0.065914         0.975484
 C        -2.732215         0.793544         0.019059
 C        -1.546996         0.991132        -0.880590
 O        -1.657833         2.285118        -1.528542
 C        -2.639471         3.163881        -0.769536
 C        -2.711490         2.326311         0.548674
 C        -1.267832         2.295310         1.238292
 H         0.834922        -0.095146         0.914778
 H        -1.599197        -1.121214         0.690894
 H        -2.044313         0.024618         1.990186
 H        -3.715376         0.504113        -0.347669
 H        -1.301659         0.249148        -1.753365
 H        -2.146963         4.085420        -0.780173
 H        -3.583411         3.315416        -1.319120
 H        -3.600554         2.527381         1.227885
 H        -0.706533         3.184317         0.938125
 H        -1.208847         2.126815         2.371846
