19
Iteration:  4218charge 0 multiplicity 1
 O         0.604153         0.639514         0.586863
 C        -0.731668         0.948064         0.561399
 C        -1.929292        -0.071234         0.958891
 C        -2.717124         0.789322         0.058338
 C        -1.540302         1.022574        -0.881323
 O        -1.646529         2.295769        -1.583285
 C        -2.646771         3.142982        -0.747644
 C        -2.639397         2.370765         0.538134
 C        -1.240160         2.277236         1.139896
 H         1.183031         1.393763         0.659584
 H        -1.506871        -0.973107         0.477260
 H        -2.066928        -0.122897         2.027133
 H        -3.726799         0.416007        -0.223904
 H        -1.287154         0.318683        -1.700460
 H        -2.371660         4.193280        -0.792892
 H        -3.548361         3.030599        -1.263724
 H        -3.489088         2.567191         1.319585
 H        -0.689270         3.228593         0.859720
 H        -1.298401         2.041402         2.319942
