19
Iteration:  4199charge 0 multiplicity 1
 O         0.591659         0.569809         0.654329
 C        -0.722371         0.970435         0.460074
 C        -1.799290        -0.067812         0.936868
 C        -2.787116         0.865785         0.049907
 C        -1.558013         1.066079        -0.902302
 O        -1.655143         2.358800        -1.522220
 C        -2.652590         2.986250        -0.790727
 C        -2.699282         2.297052         0.552163
 C        -1.194715         2.347847         1.179873
 H         1.151806         1.373489         0.543178
 H        -1.728845        -1.053427         0.475531
 H        -2.004265        -0.128206         2.035792
 H        -3.755979         0.612804        -0.399242
 H        -1.301572         0.248570        -1.494753
 H        -2.240635         3.990631        -0.745050
 H        -3.639109         3.093449        -1.320680
 H        -3.403195         2.742358         1.203928
 H        -0.582937         3.064333         0.725596
 H        -1.335111         2.423147         2.307837
