19
Iteration:   728
 O         0.598109         0.675933         0.558236
 C        -0.782034         0.963616         0.469100
 C        -1.853902         0.034070         0.996757
 C        -2.790212         0.788564         0.022791
 C        -1.560676         1.024025        -0.914870
 O        -1.600165         2.303845        -1.523543
 C        -2.543968         3.080200        -0.705310
 C        -2.669000         2.307271         0.537482
 C        -1.280225         2.234281         1.160804
 H         1.131293         1.514664         0.626753
 H        -1.742737        -1.082148         0.677328
 H        -2.100607         0.155475         2.105227
 H        -3.686510         0.331410        -0.322335
 H        -1.381384         0.118536        -1.518812
 H        -2.141905         4.107580        -0.725687
 H        -3.463213         2.983526        -1.420299
 H        -3.492032         2.668943         1.311021
 H        -0.646135         3.127016         1.010898
 H        -1.497594         2.030405         2.170374
