19
Iteration:   875charge 0 multiplicity 1
 O         0.598796         0.778988         0.562168
 C        -0.759787         0.948264         0.487886
 C        -1.864123        -0.035245         0.971580
 C        -2.798460         0.858747         0.037874
 C        -1.554208         0.977228        -0.864594
 O        -1.549837         2.353700        -1.481824
 C        -2.671617         3.072359        -0.858633
 C        -2.653311         2.324240         0.533948
 C        -1.229784         2.200396         1.188014
 H         0.752073        -0.142582         0.801596
 H        -1.527370        -0.960172         0.673501
 H        -2.165509        -0.023434         2.012526
 H        -3.739646         0.462245        -0.445452
 H        -1.287984         0.201985        -1.586878
 H        -2.373576         4.138952        -0.688923
 H        -3.723252         3.068052        -1.322173
 H        -3.257580         2.646982         1.335305
 H        -0.569342         2.992114         1.001085
 H        -1.327446         2.169311         2.251484
