19
Iteration:  3490charge 0 multiplicity 1
 O         0.647601         0.707478         0.552371
 C        -0.767259         0.933085         0.525105
 C        -1.784276        -0.041205         0.967336
 C        -2.791208         0.832551         0.029765
 C        -1.557973         1.025417        -0.911589
 O        -1.637786         2.242387        -1.545258
 C        -2.598636         3.144227        -0.718394
 C        -2.689840         2.353022         0.568556
 C        -1.312082         2.232973         1.192145
 H         1.122630         1.395579        -0.004864
 H        -1.737278        -1.085061         0.689535
 H        -2.036466        -0.137061         1.979542
 H        -3.689889         0.217020        -0.222292
 H        -1.402850         0.150578        -1.619365
 H        -2.086107         4.076828        -0.644704
 H        -3.587330         3.299042        -1.312103
 H        -3.486073         2.749148         1.210867
 H        -0.684108         2.999710         0.927191
 H        -1.368475         2.191965         2.321657
