19
Iteration:  2792
 O         0.646677         0.667562         0.611777
 C        -0.751584         1.004479         0.449203
 C        -1.782444        -0.002969         0.999163
 C        -2.769197         0.795324         0.005736
 C        -1.619582         1.006989        -0.896415
 O        -1.551218         2.292722        -1.558760
 C        -2.596897         3.032669        -0.724163
 C        -2.734404         2.330144         0.619708
 C        -1.303187         2.312656         1.190417
 H         0.997447         0.678781        -0.330404
 H        -1.604697        -1.006157         0.537662
 H        -2.275611        -0.028059         2.027013
 H        -3.657630         0.532609        -0.516521
 H        -1.493768         0.165472        -1.466558
 H        -2.280436         4.131826        -0.726546
 H        -3.632759         3.127406        -1.177902
 H        -3.560263         2.583013         1.210325
 H        -0.840848         3.287109         0.886452
 H        -1.299300         2.229641         2.263818
