19
Iteration:  2808charge 0 multiplicity 1
 O         0.647136         0.702500         0.674997
 C        -0.731285         0.971772         0.470596
 C        -1.930040        -0.061385         0.907808
 C        -2.773103         0.862998         0.106732
 C        -1.501178         1.071791        -0.904060
 O        -1.644897         2.294922        -1.547059
 C        -2.647642         3.074082        -0.784839
 C        -2.720730         2.237588         0.585968
 C        -1.216731         2.327162         1.152169
 H         1.152978         0.575836        -0.143542
 H        -1.863243        -1.089190         0.523975
 H        -1.851038        -0.105360         2.000125
 H        -3.794881         0.420161        -0.102845
 H        -1.210259         0.240426        -1.702343
 H        -2.274396         4.068341        -0.629909
 H        -3.501299         3.005336        -1.463296
 H        -3.568909         2.556005         1.344813
 H        -0.649444         3.149694         0.734223
 H        -1.043605         2.234696         2.259004
