19
Iteration:   982
 O         0.569898         0.591778         0.784438
 C        -0.741413         0.941651         0.462614
 C        -1.850668        -0.105781         0.893970
 C        -2.750230         0.873143        -0.004081
 C        -1.526983         1.032649        -0.891050
 O        -1.597888         2.381337        -1.475520
 C        -2.706778         3.041843        -0.749798
 C        -2.690354         2.322728         0.618468
 C        -1.202597         2.355083         0.981292
 H         1.178064         1.104662         0.205932
 H        -1.696586        -1.050553         0.401468
 H        -1.995991        -0.218363         2.050549
 H        -3.709552         0.474669        -0.360569
 H        -1.311721         0.353035        -1.693949
 H        -2.450329         4.101703        -0.754836
 H        -3.611085         2.904464        -1.285237
 H        -3.407230         2.581286         1.441026
 H        -0.636188         3.173858         0.544034
 H        -1.099578         2.287399         2.055839
