19
Iteration:  3137
 O         0.630059         0.584272         0.655614
 C        -0.716487         0.922391         0.493875
 C        -1.821116        -0.063639         0.979609
 C        -2.719709         0.791220         0.094093
 C        -1.527494         1.092132        -0.935128
 O        -1.669972         2.416987        -1.562462
 C        -2.722996         3.069268        -0.723118
 C        -2.649665         2.318592         0.560308
 C        -1.251644         2.255697         1.079424
 H         1.157953         1.271349         0.142115
 H        -1.612658        -1.068058         0.561872
 H        -1.964897        -0.082302         2.053725
 H        -3.711172         0.457554        -0.182581
 H        -1.458645         0.327455        -1.723242
 H        -2.490177         4.076853        -0.427856
 H        -3.659219         3.178076        -1.364154
 H        -3.514408         2.641657         1.214132
 H        -0.599550         3.086865         0.703794
 H        -1.412089         2.277478         2.219530
