19
Iteration:  1678charge 0 multiplicity 1
 O         0.556539         0.736386         0.476245
 C        -0.779680         0.979332         0.490449
 C        -1.780405        -0.050231         1.022266
 C        -2.873492         0.754404         0.030619
 C        -1.546509         1.039410        -0.851394
 O        -1.609834         2.313621        -1.528951
 C        -2.512549         3.087628        -0.792781
 C        -2.717955         2.344804         0.541202
 C        -1.236666         2.225552         1.186222
 H         0.870086         0.890676         1.405202
 H        -1.600146        -1.060847         0.482121
 H        -1.902502        -0.054997         2.094852
 H        -3.860098         0.326083        -0.387899
 H        -1.155263         0.203629        -1.443994
 H        -2.162262         4.147780        -0.722575
 H        -3.418434         3.161514        -1.511396
 H        -3.518589         2.652785         1.327974
 H        -0.581317         3.061596         1.046158
 H        -1.269349         2.121677         2.298423
