19
Iteration:  3598
 O         0.687466         0.588265         0.623169
 C        -0.678995         0.956032         0.511081
 C        -1.849958        -0.100135         0.908788
 C        -2.786377         0.812522         0.058414
 C        -1.570040         1.092052        -0.801705
 O        -1.659846         2.318902        -1.522587
 C        -2.705843         3.068374        -0.789933
 C        -2.685650         2.357205         0.554060
 C        -1.237579         2.337985         1.109880
 H         1.294611         1.232598         0.189218
 H        -1.815749        -1.098659         0.475038
 H        -2.111682        -0.163592         1.970761
 H        -3.730326         0.421819        -0.369952
 H        -1.223689         0.262786        -1.510096
 H        -2.484511         4.118309        -0.603192
 H        -3.615601         3.097551        -1.404752
 H        -3.541325         2.719335         1.186903
 H        -0.514404         3.140571         0.856549
 H        -1.338993         2.280913         2.270804
