19
Iteration:  1198charge 0 multiplicity 1
 O         0.638632         0.831813         0.601499
 C        -0.753196         1.016230         0.496854
 C        -1.911945        -0.058216         0.938593
 C        -2.705169         0.855278         0.040879
 C        -1.570056         1.005227        -0.916407
 O        -1.630007         2.221400        -1.575958
 C        -2.499023         3.083724        -0.736585
 C        -2.695105         2.297210         0.551188
 C        -1.327051         2.226212         1.242198
 H         0.643421        -0.096393         0.371411
 H        -1.925569        -1.077139         0.404674
 H        -2.164369        -0.258331         1.995406
 H        -3.665585         0.747422        -0.431905
 H        -1.237804         0.375089        -1.733942
 H        -2.027212         4.056480        -0.588299
 H        -3.475775         3.255559        -1.102954
 H        -3.552285         2.660700         1.204972
 H        -0.666467         3.109002         0.955731
 H        -1.338845         2.093180         2.389259
