19
Iteration:  3701
 O         0.529826         0.596893         0.655483
 C        -0.773533         0.959578         0.548498
 C        -1.778493        -0.060982         0.947809
 C        -2.639702         0.828217         0.078028
 C        -1.587848         1.050843        -0.957085
 O        -1.678074         2.356321        -1.543527
 C        -2.679552         3.092919        -0.817167
 C        -2.628289         2.286965         0.543908
 C        -1.194034         2.313680         1.167472
 H         1.007288         1.380639         0.265741
 H        -1.670414        -1.127507         0.752968
 H        -1.995789        -0.000950         2.028584
 H        -3.726211         0.601740        -0.231745
 H        -1.382655         0.176951        -1.581720
 H        -2.328148         4.110855        -0.701592
 H        -3.647325         2.873663        -1.361303
 H        -3.518985         2.519974         1.085944
 H        -0.624709         3.141486         0.796715
 H        -1.179461         2.233183         2.293294
