19
Iteration:   819charge 0 multiplicity 1
 O         0.592315         0.631406         0.795967
 C        -0.751239         0.945917         0.481831
 C        -1.870040        -0.053376         0.937628
 C        -2.728894         0.820543        -0.008082
 C        -1.502426         1.029549        -0.945795
 O        -1.748596         2.333423        -1.501980
 C        -2.646771         3.091733        -0.770369
 C        -2.663020         2.309739         0.552077
 C        -1.152664         2.358580         1.088937
 H         1.097029         0.491057        -0.015361
 H        -1.703321        -1.023845         0.610908
 H        -2.030262        -0.096464         2.055019
 H        -3.639583         0.468690        -0.593122
 H        -1.086853         0.403268        -1.761301
 H        -2.312077         4.176625        -0.669988
 H        -3.725318         3.028151        -1.200051
 H        -3.477089         2.471767         1.318225
 H        -0.521421         3.090667         0.654101
 H        -1.139591         2.340811         2.147163
