19
Iteration:  3160charge 0 multiplicity 1
 O         0.615351         0.612601         0.562633
 C        -0.711939         1.049798         0.430879
 C        -1.841465         0.025134         0.892418
 C        -2.792862         0.842082        -0.016499
 C        -1.562079         1.062172        -0.848021
 O        -1.634722         2.264505        -1.456503
 C        -2.630887         3.037306        -0.762346
 C        -2.703769         2.279447         0.645386
 C        -1.209655         2.288806         1.215337
 H         1.176090         1.172150         0.017911
 H        -1.622446        -0.959227         0.519505
 H        -1.927334         0.026704         1.972657
 H        -3.740974         0.507445        -0.423976
 H        -1.287476         0.277322        -1.623325
 H        -2.467265         4.071227        -0.756668
 H        -3.586979         2.933906        -1.408689
 H        -3.637152         2.373433         1.284240
 H        -0.856592         3.265135         0.949871
 H        -1.121890         2.097257         2.363407
