19
Iteration:  2544charge 0 multiplicity 1
 O         0.568039         0.591122         0.725296
 C        -0.728057         0.940249         0.522307
 C        -1.774314         0.021992         0.920418
 C        -2.706599         0.801178        -0.007080
 C        -1.535968         1.044992        -0.946557
 O        -1.728391         2.315791        -1.548843
 C        -2.668304         2.990307        -0.782755
 C        -2.643015         2.382155         0.623714
 C        -1.233051         2.323003         1.130094
 H         0.944019         1.339081         0.167595
 H        -1.653078        -0.912998         0.543981
 H        -1.994221        -0.028332         1.949187
 H        -3.622793         0.403578        -0.329107
 H        -1.159801         0.235999        -1.623140
 H        -2.559834         4.063315        -0.648871
 H        -3.745049         2.972493        -1.325004
 H        -3.457704         2.765032         1.305097
 H        -0.521023         3.103278         0.723346
 H        -1.011156         2.314419         2.171604
