19
Iteration:  1595
 O         0.692156         0.602775         0.513994
 C        -0.686001         1.010733         0.473895
 C        -1.861933         0.032304         0.931010
 C        -2.822822         0.785726         0.010963
 C        -1.572213         1.073702        -0.858723
 O        -1.555725         2.319483        -1.452228
 C        -2.668504         3.059133        -0.779766
 C        -2.755346         2.311581         0.530896
 C        -1.273126         2.287372         1.177879
 H         0.992885         0.581593         1.410861
 H        -1.584692        -0.965036         0.882451
 H        -2.271626        -0.021286         1.972038
 H        -3.856057         0.331142        -0.217457
 H        -1.329844         0.190525        -1.494036
 H        -2.253193         4.112517        -0.635222
 H        -3.544264         3.010586        -1.574386
 H        -3.546851         2.628119         1.183762
 H        -0.647090         3.138671         0.670415
 H        -1.272628         2.330102         2.246772
