19
Iteration:  1480
 O         0.615440         0.551341         0.670933
 C        -0.716715         1.002005         0.504110
 C        -1.865183        -0.012539         0.914988
 C        -2.755148         0.845577        -0.005557
 C        -1.508415         1.063100        -0.873915
 O        -1.659136         2.299364        -1.541546
 C        -2.647468         3.073043        -0.784393
 C        -2.673897         2.333547         0.595899
 C        -1.270111         2.298595         1.132158
 H         1.065521         1.378592         0.859508
 H        -1.844765        -1.076322         0.516561
 H        -1.871762        -0.134459         1.952226
 H        -3.561260         0.427644        -0.539662
 H        -1.457192         0.236627        -1.619741
 H        -2.284596         4.121314        -0.809860
 H        -3.624373         2.904601        -1.164784
 H        -3.537455         2.606581         1.253022
 H        -0.686179         3.120611         0.656434
 H        -1.071159         2.377815         2.302225
