19
Iteration:     4
 O         0.610315         0.658979         0.538602
 C        -0.760547         0.973524         0.492239
 C        -1.862990        -0.046282         0.917972
 C        -2.757985         0.829501        -0.003384
 C        -1.528338         1.068834        -0.866929
 O        -1.596796         2.339411        -1.509579
 C        -2.562953         3.070050        -0.743616
 C        -2.699863         2.293634         0.559533
 C        -1.252639         2.250134         1.176949
 H         0.816529         0.792813         1.492404
 H        -1.831159        -1.033718         0.556082
 H        -2.201339        -0.099395         2.015652
 H        -3.779085         0.487174        -0.315578
 H        -1.350098         0.197535        -1.575325
 H        -2.269176         4.156457        -0.704403
 H        -3.578013         3.128985        -1.322551
 H        -3.554919         2.657089         1.171140
 H        -0.785145         3.118545         0.828779
 H        -1.387494         2.166704         2.263306
