19
Iteration:   891charge 0 multiplicity 1
 O         0.578737         0.891048         0.488206
 C        -0.837126         0.899701         0.519433
 C        -1.884596        -0.136154         0.993830
 C        -2.807478         0.792485         0.072999
 C        -1.570040         1.074644        -0.876955
 O        -1.561297         2.288962        -1.529072
 C        -2.462042         3.072100        -0.768614
 C        -2.671386         2.324415         0.548559
 C        -1.262978         2.257731         1.185406
 H         0.956009         0.181825         0.985789
 H        -1.976013        -1.126624         0.370470
 H        -2.021699        -0.214000         2.101126
 H        -3.825361         0.450559        -0.093314
 H        -1.257567         0.255013        -1.563217
 H        -2.160817         4.109817        -0.713436
 H        -3.372522         3.038442        -1.340235
 H        -3.639480         2.701701         1.016406
 H        -0.578000         3.099252         0.736705
 H        -1.268611         2.033981         2.327775
