19
Iteration:  2308
 O         0.568535         0.706062         0.662334
 C        -0.727409         1.057705         0.454723
 C        -1.756027        -0.000803         0.968234
 C        -2.721319         0.839234         0.055321
 C        -1.525909         1.044818        -0.935489
 O        -1.797558         2.157203        -1.617896
 C        -2.533126         3.163911        -0.798933
 C        -2.708309         2.341878         0.610407
 C        -1.275285         2.162061         1.244627
 H         1.207796         1.312491         0.177116
 H        -1.646530        -1.023222         0.448502
 H        -2.047389        -0.102815         1.974390
 H        -3.637495         0.340493        -0.241882
 H        -1.232262         0.282697        -1.680974
 H        -1.884202         4.043255        -0.604458
 H        -3.578673         3.158531        -1.377222
 H        -3.356209         2.675997         1.319504
 H        -0.698511         3.017211         0.974698
 H        -1.316714         1.993722         2.387196
