19
Iteration:  1285charge 0 multiplicity 1
 O         0.606127         0.672553         0.697757
 C        -0.736784         0.896449         0.516657
 C        -1.886079        -0.031682         0.978580
 C        -2.751069         0.791780         0.070510
 C        -1.517138         1.115318        -0.911099
 O        -1.592513         2.389985        -1.504161
 C        -2.715620         2.996975        -0.794719
 C        -2.650258         2.332264         0.476892
 C        -1.229621         2.280464         1.146499
 H         0.856447         0.037392        -0.006450
 H        -1.806804        -1.067022         0.463837
 H        -2.057297        -0.143756         2.093584
 H        -3.691386         0.661400        -0.406072
 H        -1.301129         0.491887        -1.793853
 H        -2.330299         4.046769        -0.702667
 H        -3.622365         2.983437        -1.416473
 H        -3.340814         2.713078         1.306611
 H        -0.675256         3.083870         0.672353
 H        -1.222583         2.435957         2.175493
