19
Iteration:  2296
 O         0.583606         0.700334         0.639411
 C        -0.760942         0.991114         0.510587
 C        -1.795853        -0.019483         0.929227
 C        -2.672513         0.836241         0.114770
 C        -1.554047         1.018124        -0.889142
 O        -1.768486         2.227791        -1.652310
 C        -2.544259         3.064929        -0.742426
 C        -2.647990         2.305499         0.543945
 C        -1.290981         2.307039         1.212573
 H         1.003324         1.276421        -0.035884
 H        -1.516391        -1.007490         0.402102
 H        -2.026248        -0.184829         1.962045
 H        -3.642426         0.540143        -0.188826
 H        -1.320164         0.141977        -1.548429
 H        -2.001631         4.013546        -0.685659
 H        -3.527059         3.522276        -1.220931
 H        -3.516007         2.541696         1.057687
 H        -0.725219         3.169726         1.285371
 H        -1.390256         1.910607         2.298555
