19
Iteration:  4389
 O         0.634441         0.685980         0.616377
 C        -0.748570         0.952597         0.518900
 C        -1.837076        -0.013786         0.962575
 C        -2.778726         0.806437         0.059343
 C        -1.641111         1.036382        -0.931910
 O        -1.644713         2.308465        -1.558127
 C        -2.552131         3.080677        -0.832337
 C        -2.661256         2.328729         0.572938
 C        -1.268829         2.175483         1.230892
 H         1.159940         1.513467         0.534103
 H        -1.778180        -1.047272         0.480921
 H        -1.930722        -0.266545         2.047548
 H        -3.799889         0.523409        -0.297312
 H        -1.334684         0.225973        -1.740679
 H        -2.160890         4.163525        -0.583471
 H        -3.539214         3.069826        -1.281562
 H        -3.476904         2.915102         1.036829
 H        -0.807830         3.146187         0.807417
 H        -1.130506         2.259530         2.374135
