19
Iteration:  3084charge 0 multiplicity 1
 O         0.637847         0.611530         0.558751
 C        -0.727889         0.994612         0.477873
 C        -1.799609        -0.050146         0.960563
 C        -2.771240         0.798418         0.047702
 C        -1.569692         1.057993        -0.878703
 O        -1.697622         2.355084        -1.569893
 C        -2.634491         3.095536        -0.815205
 C        -2.693719         2.314175         0.602530
 C        -1.204523         2.232232         1.256371
 H         1.180949         1.431593         0.778707
 H        -1.731754        -1.010205         0.495517
 H        -2.023013        -0.077568         2.015547
 H        -3.731043         0.493294        -0.356387
 H        -1.285004         0.188318        -1.584330
 H        -2.316559         4.113806        -0.830681
 H        -3.672436         3.150745        -1.328230
 H        -3.667804         2.600946         1.163307
 H        -0.658486         3.033889         0.910146
 H        -1.139140         2.110941         2.372997
