19
Iteration:  3184
 O         0.561949         0.666819         0.479447
 C        -0.790108         0.951224         0.559138
 C        -1.813394        -0.130174         1.036807
 C        -2.750766         0.779289         0.086750
 C        -1.508410         1.015966        -0.881592
 O        -1.605012         2.358938        -1.604934
 C        -2.598138         3.148597        -0.731468
 C        -2.689593         2.320559         0.568242
 C        -1.262778         2.290688         1.184723
 H         0.888678         1.448358         0.050738
 H        -1.767286        -1.025313         0.491564
 H        -1.968681        -0.387954         2.130229
 H        -3.660528         0.232076        -0.202525
 H        -0.959207         0.332986        -1.648144
 H        -2.395758         4.201596        -0.625863
 H        -3.642746         3.135077        -1.272650
 H        -3.568349         2.573164         1.245383
 H        -0.811283         3.216399         0.946612
 H        -1.281099         2.165042         2.293035
