19
Iteration:  1099charge 0 multiplicity 1
 O         0.698398         0.851458         0.636896
 C        -0.795141         0.984993         0.446813
 C        -1.929783        -0.134343         0.963807
 C        -2.790378         0.811072         0.010454
 C        -1.562923         1.041893        -0.887556
 O        -1.642395         2.272345        -1.586521
 C        -2.517606         3.078752        -0.746259
 C        -2.664482         2.349704         0.500284
 C        -1.261336         2.214755         1.246452
 H         0.780545        -0.144714         0.634605
 H        -1.862422        -1.187885         0.533708
 H        -2.017849        -0.085511         2.004205
 H        -3.785269         0.506841        -0.326163
 H        -1.378825         0.126541        -1.500505
 H        -2.058718         4.095585        -0.617702
 H        -3.600480         3.317388        -1.194041
 H        -3.485484         2.676403         1.229463
 H        -0.792707         3.209449         0.891599
 H        -1.245141         2.170418         2.400756
