19
Iteration:  3491charge 0 multiplicity 1
 O         0.648920         0.707576         0.552767
 C        -0.768463         0.944115         0.527740
 C        -1.785057        -0.027034         0.958905
 C        -2.792454         0.846456         0.033203
 C        -1.562219         1.018790        -0.926021
 O        -1.633516         2.234337        -1.540610
 C        -2.597590         3.140438        -0.713631
 C        -2.700882         2.347791         0.566820
 C        -1.309568         2.226775         1.198911
 H         1.122787         1.404635         0.008086
 H        -1.746281        -1.108147         0.642014
 H        -2.034293        -0.132314         1.974026
 H        -3.676868         0.182407        -0.204443
 H        -1.409814         0.155736        -1.598453
 H        -2.085682         4.046943        -0.649831
 H        -3.575329         3.277326        -1.283060
 H        -3.462673         2.740980         1.199971
 H        -0.632783         3.013371         0.924014
 H        -1.365487         2.197339         2.316458
