19
Iteration:  4853charge 0 multiplicity 1
 O         0.631083         0.625877         0.579807
 C        -0.781141         0.977565         0.496853
 C        -1.868967        -0.041030         0.923304
 C        -2.814257         0.823339         0.096596
 C        -1.557469         1.044461        -0.812035
 O        -1.589888         2.309255        -1.530770
 C        -2.524657         3.055732        -0.763586
 C        -2.738525         2.346314         0.512839
 C        -1.266800         2.258508         1.139491
 H         0.970696         1.357795         0.066886
 H        -1.611565        -1.054195         0.672634
 H        -2.039636        -0.096191         2.002663
 H        -3.786013         0.406748        -0.295647
 H        -1.518346         0.316543        -1.616649
 H        -2.080609         4.024203        -0.442636
 H        -3.466499         3.083896        -1.275948
 H        -3.480781         2.844810         1.208693
 H        -0.635228         3.222972         0.845150
 H        -1.203812         2.165936         2.203384
