19
Iteration:  4485charge 0 multiplicity 1
 O         0.580170         0.584507         0.660636
 C        -0.780641         0.991456         0.503056
 C        -1.845961        -0.082993         0.958532
 C        -2.803723         0.816972         0.078767
 C        -1.587856         1.056951        -0.951033
 O        -1.556840         2.363638        -1.535522
 C        -2.713762         3.085373        -0.789680
 C        -2.673265         2.288811         0.513131
 C        -1.150899         2.348337         1.135122
 H         1.208678         1.307098         0.556866
 H        -1.657786        -1.105456         0.500354
 H        -2.027421        -0.277664         2.033993
 H        -3.825932         0.374978        -0.242160
 H        -1.060005         0.175543        -1.515132
 H        -2.193089         3.992812        -0.648325
 H        -3.792493         2.942988        -1.094023
 H        -3.361023         2.564878         1.290883
 H        -0.758242         3.213957         0.708185
 H        -1.049781         2.399953         2.304876
