19
Iteration:  1773
 O         0.679237         0.621623         0.626656
 C        -0.663305         0.965519         0.589646
 C        -1.843350        -0.053183         0.880402
 C        -2.709182         0.886560        -0.019801
 C        -1.606589         1.028386        -0.927257
 O        -1.749141         2.285587        -1.566100
 C        -2.673270         3.097325        -0.723584
 C        -2.698189         2.294194         0.580204
 C        -1.220603         2.345796         1.108260
 H         0.767351         0.387078         1.538712
 H        -1.668131        -1.080703         0.507165
 H        -1.967138        -0.056213         1.964372
 H        -3.608906         0.471465        -0.317217
 H        -1.202787         0.254799        -1.599704
 H        -2.197253         4.029812        -0.735232
 H        -3.554954         3.193568        -1.216910
 H        -3.451990         2.528810         1.314527
 H        -0.491402         3.254005         0.760828
 H        -1.349487         2.544964         2.227388
