19
Iteration:  1719charge 0 multiplicity 1
 O         0.722464         0.703052         0.380656
 C        -0.717316         0.995146         0.535585
 C        -1.962748        -0.021971         1.014059
 C        -2.815600         0.848474         0.034868
 C        -1.558345         1.068266        -0.813039
 O        -1.572322         2.275805        -1.469204
 C        -2.580288         3.062591        -0.771211
 C        -2.786204         2.300259         0.522529
 C        -1.257862         2.208219         1.209529
 H         1.064486         1.008795         1.210647
 H        -1.644961        -0.970082         0.550995
 H        -2.197371        -0.089850         2.082959
 H        -3.659491         0.456892        -0.412513
 H        -1.206020         0.279343        -1.496615
 H        -2.279367         4.076959        -0.795184
 H        -3.578052         2.927814        -1.382597
 H        -3.650172         2.707439         1.045680
 H        -0.705831         3.135778         0.756043
 H        -1.216443         2.091868         2.338425
