19
Iteration:  3738charge 0 multiplicity 1
 O         0.585263         0.557401         0.624178
 C        -0.737360         0.961677         0.476173
 C        -1.809769        -0.011901         0.914929
 C        -2.702155         0.823864         0.038154
 C        -1.556723         1.029772        -0.890827
 O        -1.656846         2.283683        -1.451470
 C        -2.638037         3.073752        -0.792763
 C        -2.722263         2.303691         0.576217
 C        -1.242681         2.350652         1.158906
 H         1.168502         1.336818         0.366573
 H        -1.553172        -1.064786         0.721217
 H        -2.033460         0.246368         2.005210
 H        -3.614088         0.560171        -0.383148
 H        -1.358821         0.434351        -1.829848
 H        -2.424528         4.207051        -0.715323
 H        -3.631815         3.145784        -1.419395
 H        -3.632462         2.440316         1.230282
 H        -0.645309         3.155681         0.646225
 H        -1.038457         2.509796         2.126286
