19
Iteration:  2817
 O         0.615750         0.727363         0.704024
 C        -0.747182         0.935301         0.510828
 C        -1.866266        -0.060438         0.905174
 C        -2.782805         0.810185         0.089024
 C        -1.471920         1.052820        -0.872831
 O        -1.699787         2.351124        -1.526113
 C        -2.658452         3.026112        -0.783390
 C        -2.643272         2.318299         0.542845
 C        -1.190823         2.232804         1.083350
 H         0.959775         0.545703        -0.191705
 H        -1.593072        -1.010831         0.452661
 H        -2.156863        -0.101666         2.048115
 H        -3.823900         0.561306        -0.233872
 H        -1.214937         0.214320        -1.533966
 H        -2.324835         4.118067        -0.656640
 H        -3.695679         3.201427        -1.195183
 H        -3.403621         2.847795         1.189392
 H        -0.647608         3.126128         0.706470
 H        -1.240310         2.279817         2.149203
