19
Iteration:   971
 O         0.604430         0.578410         0.719017
 C        -0.733672         0.989150         0.482344
 C        -1.849683         0.037287         0.827378
 C        -2.737348         0.788665         0.022615
 C        -1.522192         1.051709        -0.909994
 O        -1.678475         2.326705        -1.457968
 C        -2.654285         3.037878        -0.775445
 C        -2.664918         2.356040         0.556425
 C        -1.237778         2.250058         1.115963
 H         1.241728         1.286298         0.649793
 H        -1.747556        -0.951567         0.417121
 H        -2.111055        -0.131773         1.994202
 H        -3.678739         0.487325        -0.458334
 H        -1.413686         0.168059        -1.507833
 H        -2.337178         4.050407        -0.547039
 H        -3.608287         3.012404        -1.232086
 H        -3.526032         2.816432         1.139199
 H        -0.652486         3.048334         0.651784
 H        -0.999823         2.416141         2.163497
