19
Iteration:  4559charge 0 multiplicity 1
 O         0.566972         0.660617         0.601180
 C        -0.760907         0.969731         0.500257
 C        -1.820954        -0.080186         0.944647
 C        -2.786881         0.827307         0.021565
 C        -1.578541         0.997874        -0.809952
 O        -1.644912         2.264161        -1.589677
 C        -2.519973         3.159768        -0.787219
 C        -2.763914         2.340828         0.527519
 C        -1.226134         2.275595         1.258973
 H         1.110312         1.285756         0.045554
 H        -1.536932        -1.013313         0.350169
 H        -1.777306        -0.193606         2.041631
 H        -3.869679         0.536384        -0.351711
 H        -1.124876         0.118081        -1.351701
 H        -2.166090         4.239677        -0.651482
 H        -3.451139         3.206962        -1.439523
 H        -3.571823         2.639507         1.266540
 H        -0.515481         3.138177         0.953668
 H        -1.183944         2.169082         2.358482
