19
Iteration:   960
 O         0.622943         0.575507         0.648303
 C        -0.737513         0.987220         0.500558
 C        -1.821647        -0.011151         0.917497
 C        -2.787144         0.863253         0.006778
 C        -1.554875         1.072013        -0.891429
 O        -1.685624         2.289092        -1.574881
 C        -2.607992         3.089271        -0.757569
 C        -2.701033         2.272698         0.513539
 C        -1.205404         2.280132         1.225547
 H         1.015167         1.397777         0.968026
 H        -1.573169        -0.975155         0.487620
 H        -2.145000        -0.056627         2.051925
 H        -3.728547         0.414234        -0.353068
 H        -1.207607         0.394715        -1.660888
 H        -2.202345         4.096968        -0.760598
 H        -3.550520         3.140583        -1.266261
 H        -3.493284         2.606139         1.246782
 H        -0.675767         3.151098         0.881413
 H        -1.264957         2.167223         2.322423
