19
Iteration:  2221charge 0 multiplicity 1
 O         0.603241         0.566325         0.600987
 C        -0.703480         0.969534         0.499410
 C        -1.814604         0.052658         0.944427
 C        -2.729548         0.876668         0.091691
 C        -1.492278         1.030865        -0.810381
 O        -1.660422         2.339126        -1.531522
 C        -2.725730         3.031697        -0.815890
 C        -2.784048         2.257845         0.550835
 C        -1.162950         2.315582         1.104223
 H         1.198267         1.335407         0.556267
 H        -1.897909        -0.969938         0.450483
 H        -1.984105        -0.087103         1.965451
 H        -3.634389         0.373786        -0.306896
 H        -1.362203         0.245587        -1.566617
 H        -2.374260         4.091592        -0.586213
 H        -3.610702         2.887230        -1.466226
 H        -3.497661         2.497131         1.333036
 H        -0.611443         3.233255         0.745843
 H        -1.174311         2.303043         2.266469
