19
Iteration:  2595charge 0 multiplicity 1
 O         0.614843         0.709261         0.556892
 C        -0.730931         1.025841         0.425879
 C        -1.791176        -0.055549         1.034701
 C        -2.785305         0.796054         0.019542
 C        -1.637229         1.034200        -0.870164
 O        -1.608811         2.218467        -1.567792
 C        -2.557636         3.136466        -0.764966
 C        -2.717050         2.305603         0.560090
 C        -1.309673         2.242779         1.221577
 H         1.185310         1.450534         0.426653
 H        -1.547501        -1.184725         0.818418
 H        -2.062978        -0.113695         2.186184
 H        -3.731782         0.541516        -0.459566
 H        -1.401386         0.194709        -1.447242
 H        -2.122200         4.208117        -0.662925
 H        -3.476780         3.116315        -1.277607
 H        -3.524049         2.666711         1.147297
 H        -0.561699         3.056576         0.884574
 H        -1.322460         2.209636         2.308584
