19
Iteration:  3974
 O         0.597257         0.646957         0.567913
 C        -0.745579         1.009716         0.401658
 C        -1.858090        -0.067336         0.991325
 C        -2.772288         0.780814         0.113145
 C        -1.578391         1.028262        -0.846527
 O        -1.621702         2.309111        -1.521792
 C        -2.533045         3.108605        -0.821969
 C        -2.703245         2.253187         0.549452
 C        -1.267664         2.300864         1.192179
 H         1.142028         1.459135         0.416339
 H        -1.742465        -1.043491         0.586609
 H        -2.202390        -0.184893         2.032525
 H        -3.667349         0.415303        -0.372918
 H        -1.366691         0.250051        -1.568774
 H        -2.112397         4.086323        -0.554415
 H        -3.536628         3.224501        -1.474481
 H        -3.318415         2.761713         1.256614
 H        -0.763641         3.230506         1.010719
 H        -1.356272         2.346104         2.251810
