19
Iteration:  1792charge 0 multiplicity 1
 O         0.655215         0.663917         0.588207
 C        -0.741940         0.952881         0.521391
 C        -1.858427        -0.056154         1.011357
 C        -2.735228         0.751689         0.064481
 C        -1.446233         1.065395        -0.855716
 O        -1.764137         2.365966        -1.625049
 C        -2.676374         3.109682        -0.799367
 C        -2.632834         2.329184         0.530948
 C        -1.221327         2.264466         1.161217
 H         0.745801         0.219488         1.434621
 H        -1.675879        -0.965587         0.542095
 H        -2.210535        -0.142948         2.106498
 H        -3.737669         0.425493        -0.357775
 H        -1.319407         0.446671        -1.756440
 H        -2.320568         4.208600        -0.651769
 H        -3.733184         3.147010        -1.275172
 H        -3.361062         2.705801         1.197102
 H        -0.609490         3.152731         0.812969
 H        -1.100289         2.140176         2.192834
