19
Iteration:  3189charge 0 multiplicity 1
 O         0.587284         0.678107         0.493339
 C        -0.771971         0.936113         0.516599
 C        -1.835622        -0.109457         1.051871
 C        -2.764511         0.754884         0.069855
 C        -1.502220         1.001011        -0.876586
 O        -1.618520         2.334899        -1.586042
 C        -2.607071         3.212953        -0.760850
 C        -2.720750         2.337349         0.608900
 C        -1.264904         2.259211         1.177622
 H         1.002119         1.505842         0.070029
 H        -1.799127        -1.158577         0.512516
 H        -1.789324        -0.459614         2.087128
 H        -3.719016         0.288145        -0.223065
 H        -1.060645         0.389036        -1.588049
 H        -2.274053         4.335451        -0.638376
 H        -3.455125         3.075685        -1.352445
 H        -3.622623         2.409153         1.172209
 H        -0.825039         3.311119         1.005184
 H        -1.169335         2.207923         2.262162
