19
Iteration:  2843charge 0 multiplicity 1
 O         0.617295         0.723440         0.696203
 C        -0.750078         0.966944         0.483962
 C        -1.848462        -0.075268         0.918214
 C        -2.748934         0.800988         0.053458
 C        -1.534734         1.053168        -0.966007
 O        -1.683929         2.311544        -1.570509
 C        -2.664077         3.104733        -0.790008
 C        -2.687069         2.280779         0.610606
 C        -1.159054         2.326287         1.191837
 H         0.857082        -0.042375         0.142433
 H        -1.624873        -1.114524         0.575127
 H        -1.939762        -0.077879         1.943801
 H        -3.795208         0.533409        -0.163597
 H        -1.288679         0.142861        -1.662460
 H        -2.274998         4.095909        -0.756801
 H        -3.608932         3.069014        -1.267645
 H        -3.576100         2.565636         1.255570
 H        -0.724815         3.236476         0.843217
 H        -1.063426         2.365495         2.331227
