19
Iteration:  1878
 O         0.640978         0.681295         0.542003
 C        -0.722174         1.031551         0.417277
 C        -1.885194        -0.033692         0.918138
 C        -2.824321         0.772844         0.028383
 C        -1.591507         1.099370        -0.864372
 O        -1.625032         2.238427        -1.519560
 C        -2.574171         3.040816        -0.745229
 C        -2.664531         2.291157         0.557706
 C        -1.233293         2.290095         1.189944
 H         1.095294         1.380039         0.973364
 H        -1.762039        -1.065981         0.768934
 H        -2.178025         0.058257         2.032868
 H        -3.969593         0.544114        -0.099450
 H        -1.176020         0.415927        -1.602446
 H        -2.176804         4.094191        -0.475547
 H        -3.600143         2.990123        -1.218781
 H        -3.465350         2.729231         1.156401
 H        -0.624219         3.102552         1.090593
 H        -1.268882         1.943913         2.256441
