19
Iteration:  1444charge 0 multiplicity 1
 O         0.545983         0.595787         0.635726
 C        -0.825786         0.974988         0.481661
 C        -1.834554        -0.017464         0.985420
 C        -2.738467         0.793386         0.058922
 C        -1.485119         1.036127        -0.921931
 O        -1.542077         2.394593        -1.453762
 C        -2.644656         3.036170        -0.784044
 C        -2.672066         2.305621         0.525258
 C        -1.297011         2.314892         1.136661
 H         1.065568         0.855895        -0.128294
 H        -1.682573        -1.006086         0.486209
 H        -2.006739         0.103955         2.171579
 H        -3.652474         0.496176        -0.461760
 H        -1.415933         0.187838        -1.667572
 H        -2.447103         4.089496        -0.857672
 H        -3.540829         2.753504        -1.287594
 H        -3.338960         2.667532         1.293887
 H        -0.752927         3.186887         0.740514
 H        -1.133273         2.312596         2.298071
