19
Iteration:   956
 O         0.615288         0.587662         0.624685
 C        -0.742263         0.981397         0.518446
 C        -1.831098        -0.043868         0.968809
 C        -2.785734         0.870336        -0.010894
 C        -1.558402         1.069549        -0.886367
 O        -1.680817         2.295156        -1.625629
 C        -2.593050         3.116160        -0.771661
 C        -2.704555         2.258284         0.549393
 C        -1.216014         2.294090         1.220272
 H         1.057931         1.369406         1.043216
 H        -1.577319        -1.055706         0.522993
 H        -2.021211        -0.089394         1.993067
 H        -3.732674         0.443925        -0.290063
 H        -1.153182         0.398512        -1.669861
 H        -2.119417         4.107022        -0.718698
 H        -3.571366         3.117472        -1.302876
 H        -3.490280         2.500201         1.296318
 H        -0.624618         3.298616         1.002335
 H        -1.363888         2.046967         2.350589
