19
Iteration:  3983charge 0 multiplicity 1
 O         0.572895         0.649597         0.561833
 C        -0.786567         0.992497         0.528150
 C        -1.817043        -0.061341         1.001938
 C        -2.754113         0.779011         0.020609
 C        -1.597646         1.050466        -0.848773
 O        -1.588917         2.303264        -1.557670
 C        -2.581338         3.129888        -0.778907
 C        -2.729518         2.298720         0.543101
 C        -1.247531         2.268653         1.154671
 H         1.203054         1.401111         0.444835
 H        -1.708345        -1.086450         0.686767
 H        -1.872006         0.030499         2.102509
 H        -3.766611         0.430280        -0.311707
 H        -1.351513         0.206684        -1.466958
 H        -2.174596         4.159021        -0.653849
 H        -3.565149         3.196424        -1.378724
 H        -3.459089         2.551000         1.297581
 H        -0.467065         3.088458         0.847649
 H        -1.235778         2.097412         2.187098
