19
Iteration:  2150charge 0 multiplicity 1
 O         0.660533         0.709094         0.594912
 C        -0.721902         0.986414         0.518569
 C        -1.833080        -0.059021         0.941887
 C        -2.769223         0.790431         0.075713
 C        -1.616542         0.968301        -0.917113
 O        -1.684012         2.231235        -1.536206
 C        -2.598835         3.152246        -0.810897
 C        -2.726666         2.360898         0.535257
 C        -1.230175         2.274885         1.248084
 H         1.127783         1.493737         0.229268
 H        -1.786703        -1.043702         0.551995
 H        -1.974686        -0.165031         2.097905
 H        -3.553316         0.152552        -0.390403
 H        -1.378348         0.222445        -1.674490
 H        -1.960423         3.957588        -0.644027
 H        -3.629561         3.344976        -1.350446
 H        -3.527334         2.857279         1.167648
 H        -0.619564         3.141335         0.954558
 H        -1.183122         2.118441         2.296450
