19
Iteration:  2169charge 0 multiplicity 1
 O         0.664617         0.684322         0.699860
 C        -0.763578         0.986361         0.419859
 C        -1.795387         0.000019         0.957884
 C        -2.756122         0.857154         0.039901
 C        -1.549267         1.056542        -0.884160
 O        -1.802729         2.206893        -1.659778
 C        -2.527579         3.067359        -0.695815
 C        -2.650913         2.301546         0.548335
 C        -1.297373         2.250469         1.171830
 H         1.245610         1.338923         0.311543
 H        -1.541708        -1.012557         0.574390
 H        -2.027943        -0.047258         2.070900
 H        -3.848502         0.691658        -0.181464
 H        -1.339334         0.272636        -1.585866
 H        -1.945304         4.067453        -0.606653
 H        -3.471718         3.222191        -1.122097
 H        -3.489885         2.565740         1.344087
 H        -0.751347         3.217669         0.930817
 H        -1.356857         2.003022         2.199571
