19
Iteration:  1874charge 0 multiplicity 1
 O         0.622623         0.692164         0.492504
 C        -0.764663         1.050783         0.451722
 C        -1.900898        -0.021877         0.934430
 C        -2.772156         0.759672         0.060449
 C        -1.599514         1.020726        -0.867714
 O        -1.607106         2.281435        -1.518053
 C        -2.561224         3.024156        -0.728870
 C        -2.651315         2.311450         0.571740
 C        -1.265006         2.291903         1.166922
 H         1.074220         1.408045         1.056075
 H        -1.914867        -1.166673         0.695792
 H        -2.202952         0.055591         1.967960
 H        -3.813127         0.557721        -0.294869
 H        -1.090862         0.374893        -1.609813
 H        -2.214122         4.006165        -0.596639
 H        -3.464651         2.975460        -1.253512
 H        -3.533051         2.668194         1.246311
 H        -0.516512         3.253427         1.094753
 H        -1.209630         1.863652         2.303424
