19
Iteration:   163
 O         0.606945         0.615996         0.587075
 C        -0.755005         1.049199         0.467823
 C        -1.802545         0.055419         0.996205
 C        -2.791074         0.817617         0.091232
 C        -1.520953         1.067617        -0.929892
 O        -1.690460         2.308479        -1.644341
 C        -2.554332         3.089961        -0.751076
 C        -2.661450         2.249203         0.524785
 C        -1.269020         2.216734         1.202784
 H         0.867531         0.810772         1.516930
 H        -1.754238        -1.028387         0.598800
 H        -2.006309        -0.039506         2.069307
 H        -3.635424         0.320318        -0.333107
 H        -1.328952         0.261030        -1.609998
 H        -2.171985         4.096768        -0.636663
 H        -3.577939         3.361385        -1.344725
 H        -3.347701         2.513773         1.285116
 H        -0.753123         3.217676         1.150924
 H        -1.516785         1.964312         2.259255
