19
Iteration:   692
 O         0.628230         0.494822         0.831628
 C        -0.673721         0.976764         0.559667
 C        -1.854916        -0.054968         0.820976
 C        -2.742711         0.814079         0.010082
 C        -1.577368         1.105539        -0.941358
 O        -1.705463         2.326090        -1.588366
 C        -2.664498         3.023030        -0.741986
 C        -2.662841         2.338284         0.627849
 C        -1.201335         2.425397         1.028566
 H         1.267739         1.221420         0.603147
 H        -1.777089        -1.093352         0.262594
 H        -2.091879        -0.317903         1.847408
 H        -3.708293         0.385688        -0.215913
 H        -1.531112         0.348384        -1.688049
 H        -2.513065         4.084741        -0.783917
 H        -3.746216         2.834801        -1.132462
 H        -3.213444         2.726572         1.417966
 H        -0.561307         3.220204         0.583088
 H        -1.175760         2.729871         2.128384
