19
Iteration:  1401
 O         0.589061         0.771362         0.590853
 C        -0.723934         0.929189         0.542251
 C        -1.854786        -0.121749         1.004723
 C        -2.735317         0.831897         0.007647
 C        -1.544568         1.021111        -0.860356
 O        -1.684769         2.278639        -1.583908
 C        -2.476178         3.126071        -0.793096
 C        -2.661720         2.386929         0.554088
 C        -1.357182         2.231248         1.202663
 H         0.985962         0.366828        -0.161125
 H        -1.644249        -1.139845         0.557902
 H        -2.253212        -0.114857         2.132017
 H        -3.745937         0.524437        -0.320438
 H        -1.212996         0.206483        -1.625417
 H        -2.013738         4.088652        -0.568361
 H        -3.435205         3.366785        -1.224527
 H        -3.655631         2.587436         0.972926
 H        -0.688929         3.109273         1.064228
 H        -1.375707         2.171225         2.441383
