19
Iteration:   307
 O         0.666436         0.827140         0.590528
 C        -0.765261         0.939407         0.423156
 C        -1.875365        -0.044694         0.979610
 C        -2.783246         0.811141         0.090302
 C        -1.664112         0.971916        -0.916389
 O        -1.630732         2.248073        -1.654603
 C        -2.471084         3.170128        -0.818065
 C        -2.667488         2.313730         0.622541
 C        -1.286665         2.193228         1.218449
 H         0.862263         1.249128         1.464016
 H        -1.626399        -1.063750         0.766354
 H        -2.206811        -0.120341         2.095171
 H        -3.874842         0.536758        -0.110855
 H        -1.518286         0.015710        -1.572002
 H        -1.934619         4.065092        -0.754182
 H        -3.454573         3.277696        -1.312220
 H        -3.504423         2.586834         1.249125
 H        -0.639152         2.946801         0.987105
 H        -1.327689         1.866183         2.278293
