19
Iteration:  4397charge 0 multiplicity 1
 O         0.642597         0.677007         0.621387
 C        -0.742413         0.982536         0.495348
 C        -1.847623        -0.057281         0.922569
 C        -2.786390         0.837745         0.062421
 C        -1.644171         0.997522        -0.839928
 O        -1.615715         2.317520        -1.591893
 C        -2.548771         3.100160        -0.773784
 C        -2.711627         2.300636         0.578968
 C        -1.236288         2.252601         1.163230
 H         1.026861         1.549728         0.434016
 H        -1.656851        -1.041106         0.459633
 H        -2.122339        -0.080222         1.989119
 H        -3.745751         0.351150        -0.265997
 H        -1.451482         0.134109        -1.558007
 H        -2.006932         4.033353        -0.820305
 H        -3.561889         3.173888        -1.358064
 H        -3.506268         2.639356         1.219781
 H        -0.678607         3.168639         1.064050
 H        -1.332826         2.008196         2.331487
