19
Iteration:  4091
 O         0.626724         0.660332         0.555738
 C        -0.797031         0.944755         0.462824
 C        -1.872672        -0.092813         0.993037
 C        -2.748209         0.834261         0.084456
 C        -1.510506         1.023892        -0.845715
 O        -1.652038         2.278461        -1.564253
 C        -2.587216         3.115765        -0.737667
 C        -2.678507         2.278936         0.505394
 C        -1.280408         2.327054         1.173410
 H         1.108017         1.539726         0.482744
 H        -1.735990        -1.120745         0.659457
 H        -2.171723        -0.088916         2.073012
 H        -3.775454         0.654242        -0.306408
 H        -1.328107         0.188109        -1.482610
 H        -2.136905         4.129810        -0.588834
 H        -3.443600         3.198489        -1.387651
 H        -3.369343         2.783530         1.134425
 H        -0.645647         3.200770         0.990656
 H        -1.218055         2.123082         2.203506
