19
Iteration:  3513charge 0 multiplicity 1
 O         0.588845         0.712881         0.577707
 C        -0.769721         1.013261         0.405147
 C        -1.827848        -0.051756         0.908463
 C        -2.833364         0.811779         0.075489
 C        -1.598842         1.038259        -0.851231
 O        -1.633774         2.272342        -1.566985
 C        -2.527258         3.014063        -0.775663
 C        -2.623305         2.288341         0.643464
 C        -1.250299         2.311839         1.221011
 H         1.155796         1.453207         0.423201
 H        -1.595118        -1.071802         0.573360
 H        -2.019569        -0.267006         1.915769
 H        -3.894900         0.633696        -0.306488
 H        -1.424684         0.228289        -1.558389
 H        -2.167958         3.994229        -0.614644
 H        -3.510321         3.119544        -1.386361
 H        -3.485823         2.614074         1.153522
 H        -0.845549         3.271997         1.113689
 H        -1.140609         1.967117         2.267256
