19
Iteration:  2123
 O         0.531204         0.675273         0.474021
 C        -0.799972         1.000352         0.518463
 C        -1.847178        -0.016154         0.954237
 C        -2.768696         0.814550         0.104285
 C        -1.511962         1.011251        -0.845642
 O        -1.531304         2.327656        -1.519587
 C        -2.596602         2.953011        -0.762155
 C        -2.691296         2.294106         0.622776
 C        -1.291829         2.330665         1.143168
 H         1.101781         1.440936         0.200729
 H        -1.782358        -1.127908         0.627690
 H        -1.963637         0.047745         1.996059
 H        -3.595723         0.291967        -0.374982
 H        -1.171492         0.258417        -1.592828
 H        -2.326172         4.085839        -0.754242
 H        -3.544837         2.823836        -1.185789
 H        -3.414044         2.853974         1.282500
 H        -0.775288         3.232146         0.706418
 H        -1.252214         2.208222         2.276500
