19
Iteration:  1862
 O         0.562515         0.738121         0.420013
 C        -0.790491         0.946307         0.489837
 C        -1.903412        -0.034865         1.032809
 C        -2.758207         0.851471         0.026681
 C        -1.499874         0.975056        -0.889771
 O        -1.578476         2.320292        -1.512930
 C        -2.569949         3.054998        -0.765524
 C        -2.679786         2.289101         0.595497
 C        -1.256327         2.255697         1.209875
 H         1.032448         1.245233         1.063548
 H        -1.643928        -1.050731         0.530327
 H        -2.107884        -0.105131         2.080628
 H        -3.652972         0.409165        -0.382966
 H        -1.385856         0.066218        -1.534632
 H        -2.242981         4.060168        -0.705992
 H        -3.548229         3.066069        -1.218600
 H        -3.510995         2.603678         1.298346
 H        -0.708276         3.276946         0.834640
 H        -1.293231         2.258828         2.394109
