19
Iteration:  1073
 O         0.581579         0.965058         0.627444
 C        -0.825555         0.932270         0.464848
 C        -1.848775        -0.067995         0.901563
 C        -2.787908         0.834995         0.049154
 C        -1.615556         0.918482        -0.898375
 O        -1.617940         2.214913        -1.584253
 C        -2.442078         3.143232        -0.722238
 C        -2.700647         2.343138         0.536962
 C        -1.249080         2.199131         1.223692
 H         0.957799         0.077864         0.363206
 H        -1.982850        -1.033208         0.301938
 H        -2.011409        -0.166369         2.004559
 H        -3.755355         0.383836        -0.240334
 H        -1.340908        -0.032680        -1.429891
 H        -1.754656         3.958457        -0.423993
 H        -3.270480         3.551201        -1.216219
 H        -3.449874         2.554389         1.254047
 H        -0.664554         3.025479         1.079988
 H        -1.328161         1.993201         2.219128
