19
Iteration:   941
 O         0.566875         0.688027         0.490284
 C        -0.773452         1.004822         0.540820
 C        -1.852947        -0.084762         1.018562
 C        -2.677688         0.751282         0.085814
 C        -1.487141         1.033407        -0.917088
 O        -1.691874         2.315371        -1.709010
 C        -2.513887         3.121576        -0.789717
 C        -2.658172         2.339946         0.584488
 C        -1.362373         2.231816         1.290040
 H         1.080078         1.004369         1.287043
 H        -1.746153        -1.065997         0.669161
 H        -2.117996        -0.039736         2.118766
 H        -3.664065         0.560005        -0.422005
 H        -1.290117         0.133065        -1.503292
 H        -2.011602         4.109095        -0.521355
 H        -3.484728         3.485366        -1.296607
 H        -3.470536         2.698030         1.151864
 H        -0.755774         3.087727         1.227076
 H        -1.447763         2.012982         2.293127
