19
Iteration:   166charge 0 multiplicity 1
 O         0.606538         0.591784         0.615960
 C        -0.727425         1.062328         0.450207
 C        -1.788626         0.043819         0.992851
 C        -2.790696         0.818056         0.063951
 C        -1.531869         1.076213        -0.933435
 O        -1.701123         2.309866        -1.632551
 C        -2.581283         3.088951        -0.743884
 C        -2.667501         2.254808         0.540528
 C        -1.251725         2.238042         1.176764
 H         0.875390         0.745828         1.552129
 H        -1.617767        -0.898357         0.686003
 H        -2.041790        -0.035626         2.057269
 H        -3.790855         0.414877        -0.358160
 H        -1.272225         0.188496        -1.624114
 H        -2.160233         4.089030        -0.608202
 H        -3.516143         3.240586        -1.337215
 H        -3.435446         2.620210         1.251303
 H        -0.785450         3.169508         1.152792
 H        -1.486459         1.871328         2.192329
