19
Iteration:  2961
 O         0.567667         0.608466         0.639880
 C        -0.733148         0.948302         0.491815
 C        -1.795236        -0.037852         0.917566
 C        -2.688940         0.820761         0.020676
 C        -1.559496         1.064528        -0.930387
 O        -1.660927         2.339347        -1.533938
 C        -2.670696         3.084659        -0.714288
 C        -2.749540         2.311116         0.603396
 C        -1.210998         2.312524         1.155290
 H         1.151616         1.201538         0.070442
 H        -1.665652        -1.085304         0.536256
 H        -1.984384        -0.129962         1.959018
 H        -3.627451         0.378876        -0.373288
 H        -1.317386         0.356475        -1.718130
 H        -2.133401         3.982956        -0.588749
 H        -3.641199         3.099460        -1.263886
 H        -3.574941         2.453791         1.373953
 H        -0.574351         3.073040         0.827398
 H        -1.063498         2.273832         2.230854
