19
Iteration:  3052charge 0 multiplicity 1
 O         0.591554         0.700182         0.475996
 C        -0.774656         1.000823         0.464446
 C        -1.822367        -0.077021         0.976089
 C        -2.763571         0.825174         0.069240
 C        -1.554550         1.004780        -0.840421
 O        -1.622315         2.339151        -1.498910
 C        -2.546982         3.056704        -0.759434
 C        -2.659218         2.285418         0.590340
 C        -1.326245         2.260428         1.201292
 H         1.121964         1.411268         0.137652
 H        -1.790226        -1.042353         0.557365
 H        -1.965340        -0.171760         2.056350
 H        -3.741813         0.604499        -0.341113
 H        -1.270786         0.198319        -1.616403
 H        -2.104532         4.019805        -0.618042
 H        -3.512345         3.102638        -1.263334
 H        -3.649327         2.471816         1.081122
 H        -0.776782         3.104079         0.943509
 H        -1.262418         2.214047         2.285510
