19
Iteration:   537charge 0 multiplicity 1
 O         0.538702         0.462109         0.794460
 C        -0.704382         1.056779         0.481310
 C        -1.712344        -0.042669         0.977571
 C        -2.733378         0.734095         0.014719
 C        -1.525105         1.089542        -0.925357
 O        -1.721435         2.375441        -1.590190
 C        -2.720963         3.097137        -0.768220
 C        -2.699136         2.376720         0.526647
 C        -1.173935         2.336574         1.079870
 H         1.256808         0.988248         0.407791
 H        -1.532068        -1.059469         0.742453
 H        -2.031682        -0.191589         2.057339
 H        -3.773344         0.378573        -0.295605
 H        -1.102789         0.306304        -1.637359
 H        -2.458404         4.158716        -0.781779
 H        -3.750851         2.978002        -1.264865
 H        -3.430829         2.628753         1.191125
 H        -0.697855         3.224157         0.731978
 H        -1.143470         2.225685         2.219102
