19
Iteration:  4011charge 0 multiplicity 1
 O         0.607297         0.594746         0.641565
 C        -0.733270         1.024751         0.487773
 C        -1.944038        -0.044933         0.947148
 C        -2.718973         0.806883         0.037343
 C        -1.542468         1.072234        -0.875431
 O        -1.651418         2.330582        -1.537146
 C        -2.637997         3.015978        -0.766782
 C        -2.647751         2.264859         0.574753
 C        -1.210039         2.372732         1.111954
 H         1.344714         1.226295         0.389034
 H        -1.941348        -1.104830         0.553814
 H        -2.088432         0.076960         2.019357
 H        -3.691101         0.505784        -0.391388
 H        -1.347988         0.215849        -1.564390
 H        -2.365624         4.083781        -0.700518
 H        -3.598285         2.979674        -1.319373
 H        -3.390652         2.557423         1.422382
 H        -0.632100         3.183038         0.762070
 H        -1.184258         2.136768         2.232471
