19
Iteration:  2648
 O         0.635926         0.619300         0.611655
 C        -0.696959         0.962504         0.497665
 C        -1.843921        -0.024609         0.973991
 C        -2.813441         0.781417         0.115246
 C        -1.542188         0.998264        -0.890471
 O        -1.615438         2.345195        -1.518807
 C        -2.662092         3.105519        -0.852441
 C        -2.742765         2.272846         0.537712
 C        -1.201110         2.366504         1.160531
 H         1.035912         1.292922         0.081348
 H        -1.507368        -1.081495         0.516567
 H        -2.152604        -0.166521         2.094702
 H        -3.808836         0.322485        -0.149521
 H        -1.382257         0.193820        -1.570758
 H        -2.207187         4.165979        -0.718196
 H        -3.687966         3.107048        -1.443341
 H        -3.475259         2.634031         1.204471
 H        -0.528877         3.196461         0.997433
 H        -1.396623         2.170817         2.270842
