19
Iteration:  1234charge 0 multiplicity 1
 O         0.573017         0.850183         0.579180
 C        -0.774356         1.016730         0.505836
 C        -1.811261        -0.109389         0.952549
 C        -2.748704         0.780641         0.074357
 C        -1.600906         0.962144        -0.914003
 O        -1.685668         2.280011        -1.692535
 C        -2.342362         3.146065        -0.708632
 C        -2.718408         2.325828         0.536725
 C        -1.354648         2.224319         1.295787
 H         0.736805        -0.066303         0.395099
 H        -1.736896        -1.049298         0.509666
 H        -2.075526        -0.101718         2.055480
 H        -3.757002         0.490617        -0.254223
 H        -1.239889         0.172020        -1.515298
 H        -1.823178         4.061579        -0.476258
 H        -3.204152         3.334973        -1.355672
 H        -3.548276         2.515667         1.155598
 H        -0.685910         3.165698         1.181905
 H        -1.472905         2.065648         2.472586
