19
Iteration:  4026
 O         0.626667         0.545759         0.702091
 C        -0.708344         0.962916         0.498445
 C        -1.782432        -0.032919         0.929042
 C        -2.821673         0.865666         0.019599
 C        -1.577479         1.045557        -0.858874
 O        -1.616239         2.303652        -1.554863
 C        -2.750804         3.105166        -0.778468
 C        -2.718462         2.340169         0.540593
 C        -1.141775         2.282552         1.131051
 H         1.075480         1.257176         0.242871
 H        -1.386481        -1.013052         0.624188
 H        -2.174718        -0.191020         1.965256
 H        -3.824226         0.524171        -0.391370
 H        -1.286935         0.289764        -1.565623
 H        -2.414387         4.149261        -0.690401
 H        -3.684458         3.009997        -1.219487
 H        -3.587876         2.594311         1.158750
 H        -0.577882         3.349956         0.835594
 H        -1.107851         2.420747         2.185636
