19
Iteration:   477charge 0 multiplicity 1
 O         0.535571         0.665421         0.524040
 C        -0.788186         0.997916         0.519772
 C        -1.803811        -0.041194         1.015779
 C        -2.724861         0.841518         0.070759
 C        -1.533213         0.989536        -0.842553
 O        -1.606931         2.296656        -1.524999
 C        -2.530056         3.070005        -0.778038
 C        -2.732937         2.265935         0.513615
 C        -1.283458         2.276011         1.152582
 H         1.107595         1.424951         0.576701
 H        -1.689660        -0.962292         0.376884
 H        -2.106699        -0.128184         2.011389
 H        -3.698729         0.568841        -0.230029
 H        -1.297846         0.248469        -1.558371
 H        -2.040485         4.093144        -0.658153
 H        -3.519096         3.211632        -1.326206
 H        -3.616238         2.629756         1.201687
 H        -0.763463         3.248294         0.839706
 H        -1.291046         2.286663         2.232007
