19
Iteration:  4306
 O         0.609263         0.622617         0.644047
 C        -0.727930         0.933620         0.530554
 C        -1.848902         0.020341         0.911798
 C        -2.793500         0.817509        -0.014408
 C        -1.591451         1.072541        -0.918750
 O        -1.614986         2.318340        -1.508411
 C        -2.621440         3.034473        -0.773064
 C        -2.723528         2.293205         0.579106
 C        -1.173994         2.293740         1.175898
 H         0.979914         1.143448        -0.069703
 H        -1.626512        -0.980354         0.597496
 H        -1.935148         0.117677         1.983436
 H        -3.824798         0.550689        -0.218123
 H        -1.146771         0.330932        -1.521807
 H        -2.325239         4.085176        -0.701278
 H        -3.667401         2.844946        -1.340285
 H        -3.621467         2.607463         1.204421
 H        -0.633384         3.226113         0.916849
 H        -1.153171         2.247538         2.362256
