19
Iteration:   201
 O         0.595057         0.581314         0.672265
 C        -0.704801         0.967596         0.603278
 C        -1.918017        -0.095182         0.932063
 C        -2.720927         0.845085         0.049052
 C        -1.477775         1.129744        -0.853723
 O        -1.669281         2.395766        -1.565281
 C        -2.778840         3.056637        -0.760452
 C        -2.640594         2.238134         0.552790
 C        -1.139755         2.345046         0.951067
 H         0.879297         0.318567         1.579649
 H        -1.621611        -0.890355         0.307847
 H        -2.243993        -0.430248         1.910806
 H        -3.781836         0.632297        -0.345482
 H        -1.107874         0.335426        -1.579619
 H        -2.619708         4.179798        -0.659601
 H        -3.689822         2.880818        -1.297933
 H        -3.305027         2.606639         1.406733
 H        -0.536340         3.124815         0.522765
 H        -1.031737         2.584702         2.026199
