19
Iteration:  4216
 O         0.612934         0.628306         0.592085
 C        -0.757302         0.947745         0.562570
 C        -1.919647        -0.086610         0.965887
 C        -2.711311         0.792918         0.058803
 C        -1.547651         1.025954        -0.872895
 O        -1.649806         2.299178        -1.581464
 C        -2.638378         3.141631        -0.749596
 C        -2.623562         2.370429         0.531421
 C        -1.243521         2.295542         1.133511
 H         1.188152         1.428630         0.655833
 H        -1.540890        -1.004682         0.433350
 H        -2.102154        -0.143208         2.040958
 H        -3.712282         0.416578        -0.222412
 H        -1.281709         0.329787        -1.753087
 H        -2.403612         4.252703        -0.726201
 H        -3.628411         2.952436        -1.291287
 H        -3.496169         2.550030         1.290157
 H        -0.693168         3.313144         0.909383
 H        -1.258449         2.027760         2.209813
