19
Iteration:  4809
 O         0.598475         0.519787         0.679908
 C        -0.703025         1.011010         0.489304
 C        -1.821472         0.006757         0.920482
 C        -2.755345         0.873067         0.030500
 C        -1.576249         1.126426        -0.931549
 O        -1.724566         2.288851        -1.584168
 C        -2.607349         3.063436        -0.735856
 C        -2.683437         2.286541         0.600843
 C        -1.198503         2.286471         1.170414
 H         1.289718         1.165361         0.618640
 H        -1.994283        -1.044532         0.572284
 H        -2.125596        -0.132691         1.981684
 H        -3.696394         0.406602        -0.416793
 H        -1.143792         0.321762        -1.607771
 H        -2.038762         4.064431        -0.695425
 H        -3.556207         2.962385        -1.332789
 H        -3.618360         2.845526         1.026368
 H        -0.504887         3.191416         0.812091
 H        -1.267795         2.250134         2.256647
