19
Iteration:  2041
 O         0.678776         0.634830         0.709127
 C        -0.738589         0.962499         0.487257
 C        -1.812760        -0.061722         0.912106
 C        -2.752712         0.823141         0.084599
 C        -1.540342         1.072848        -0.934806
 O        -1.800876         2.248481        -1.650622
 C        -2.588530         3.132891        -0.712968
 C        -2.699508         2.352019         0.552083
 C        -1.237208         2.252966         1.154313
 H         1.283729         1.427279         0.694311
 H        -1.609216        -0.974083         0.447086
 H        -2.009707        -0.170513         2.033753
 H        -3.741965         0.433396        -0.257159
 H        -1.285221         0.363863        -1.702396
 H        -2.124909         4.086973        -0.650084
 H        -3.640759         3.104811        -1.166553
 H        -3.554228         2.739775         1.091463
 H        -0.547309         3.135858         1.025488
 H        -1.200902         2.116538         2.308612
