19
Iteration:  3758charge 0 multiplicity 1
 O         0.600462         0.617941         0.602605
 C        -0.804730         1.016511         0.540781
 C        -1.837456        -0.057647         0.986502
 C        -2.782540         0.776256         0.125325
 C        -1.584200         1.055439        -0.885166
 O        -1.585361         2.354074        -1.595262
 C        -2.602901         3.066419        -0.733557
 C        -2.667813         2.288586         0.545653
 C        -1.239996         2.264676         1.060869
 H         1.120583         1.376678         0.313434
 H        -1.717552        -0.937442         0.377453
 H        -1.992228        -0.153219         2.075607
 H        -3.717019         0.492120        -0.200072
 H        -0.975649         0.286577        -1.386941
 H        -2.442979         4.160704        -0.687082
 H        -3.665226         3.028756        -1.214265
 H        -3.437160         2.796002         1.146266
 H        -0.695328         3.233310         0.954447
 H        -1.298509         2.054767         2.092095
