19
Iteration:  1133charge 0 multiplicity 1
 O         0.644740         0.541404         0.692750
 C        -0.726231         1.078124         0.495680
 C        -1.851193        -0.004466         0.948234
 C        -2.763141         0.821054         0.005309
 C        -1.509449         1.103291        -0.888949
 O        -1.616036         2.386231        -1.525877
 C        -2.694279         3.009285        -0.773074
 C        -2.675525         2.267838         0.525494
 C        -1.262081         2.350357         1.167083
 H         0.617781        -0.243508         0.069460
 H        -1.795716        -1.062649         0.634419
 H        -2.016714        -0.017231         2.031921
 H        -3.655735         0.405824        -0.462418
 H        -1.121387         0.271877        -1.456900
 H        -2.398241         4.070918        -0.707811
 H        -3.720249         2.835167        -1.360978
 H        -3.591447         2.592275         1.090420
 H        -0.700120         3.258393         0.683717
 H        -1.104862         2.366804         2.330940
