19
Iteration:  4913
 O         0.631959         0.544240         0.598556
 C        -0.765134         0.962424         0.520574
 C        -1.898469        -0.002453         0.937383
 C        -2.688157         0.868770         0.057978
 C        -1.530297         1.078637        -0.906341
 O        -1.632267         2.287363        -1.553709
 C        -2.625435         3.081988        -0.770651
 C        -2.730782         2.313972         0.566678
 C        -1.235687         2.303023         1.200616
 H         1.078686         1.351494         0.253745
 H        -1.704059        -1.126583         0.662361
 H        -2.059735         0.004991         2.068128
 H        -3.700098         0.496919        -0.164649
 H        -1.435401         0.286592        -1.702859
 H        -2.349688         4.138187        -0.792756
 H        -3.570306         3.166927        -1.447354
 H        -3.703426         2.585503         1.005322
 H        -0.637880         3.179052         1.054017
 H        -1.038830         2.146987         2.346857
