19
Iteration:  3618charge 0 multiplicity 1
 O         0.646890         0.631124         0.548112
 C        -0.753057         0.994087         0.519134
 C        -1.852322         0.003030         0.985798
 C        -2.746522         0.855994         0.071180
 C        -1.533912         1.011050        -0.970188
 O        -1.649408         2.265799        -1.523182
 C        -2.558942         3.077210        -0.762327
 C        -2.731382         2.279035         0.611662
 C        -1.331648         2.276519         1.209147
 H         1.081045         1.391982         0.185671
 H        -1.664611        -0.867969         0.370583
 H        -1.964366        -0.009710         2.135098
 H        -3.639697         0.650827        -0.423257
 H        -1.335251         0.106665        -1.662958
 H        -2.136028         4.150672        -0.684495
 H        -3.409097         3.043907        -1.374521
 H        -3.661691         2.490137         1.249328
 H        -0.750207         3.230220         0.774850
 H        -1.202709         2.310534         2.335521
