19
Iteration:   487charge 0 multiplicity 1
 O         0.527316         0.644737         0.576094
 C        -0.801855         0.953439         0.556651
 C        -1.852801        -0.041792         0.953416
 C        -2.783881         0.763473         0.061785
 C        -1.477054         1.068881        -0.860808
 O        -1.611734         2.323253        -1.510486
 C        -2.647197         3.044696        -0.802167
 C        -2.587532         2.338441         0.519003
 C        -1.240398         2.311693         1.120690
 H         0.949794         1.502757         0.648799
 H        -1.665832        -1.149617         0.594966
 H        -1.978226        -0.161914         2.007830
 H        -3.702903         0.426073        -0.285924
 H        -1.314554         0.277216        -1.524134
 H        -2.310209         4.087756        -0.588494
 H        -3.569826         3.096696        -1.406156
 H        -3.428723         2.498878         1.372164
 H        -0.516340         3.082267         0.641973
 H        -1.240746         2.401350         2.179400
