19
Iteration:  1043
 O         0.648150         0.738925         0.582433
 C        -0.772346         0.991053         0.557824
 C        -1.881553        -0.006146         0.960332
 C        -2.773751         0.802051         0.024011
 C        -1.539630         1.019731        -0.828379
 O        -1.615199         2.302302        -1.650910
 C        -2.531111         3.088234        -0.782046
 C        -2.734514         2.293161         0.527349
 C        -1.275835         2.249601         1.294412
 H         0.740475         0.240997        -0.252363
 H        -1.781774        -1.026391         0.473496
 H        -2.168282        -0.096374         1.949819
 H        -3.714189         0.330813        -0.274174
 H        -1.133718         0.227845        -1.515118
 H        -1.955551         4.022602        -0.555999
 H        -3.560454         3.267512        -1.322738
 H        -3.487353         2.609088         1.273535
 H        -0.742958         3.222132         1.144502
 H        -1.430464         2.114385         2.405854
