19
Iteration:  2110charge 0 multiplicity 1
 O         0.619821         0.612746         0.501537
 C        -0.743308         1.016356         0.419869
 C        -1.865837         0.027821         1.034661
 C        -2.764280         0.782396         0.010670
 C        -1.534956         1.038464        -0.902935
 O        -1.531625         2.289665        -1.398311
 C        -2.709257         2.995073        -0.794988
 C        -2.762163         2.335326         0.576453
 C        -1.219715         2.337373         1.194185
 H         1.112914         1.368170         0.152189
 H        -1.628637        -0.992565         0.618615
 H        -2.199525        -0.060760         2.039651
 H        -3.763269         0.475102        -0.271545
 H        -1.356899         0.160234        -1.586106
 H        -2.420984         4.088172        -0.728496
 H        -3.548981         2.783894        -1.452380
 H        -3.618913         2.542753         1.155166
 H        -0.634812         3.230809         0.885092
 H        -0.970371         2.386757         2.358074
