19
Iteration:  1059charge 0 multiplicity 1
 O         0.538193         0.883228         0.589629
 C        -0.806711         0.990014         0.497103
 C        -1.861934        -0.159942         0.967815
 C        -2.801544         0.794124         0.059206
 C        -1.545666         1.069775        -0.900089
 O        -1.654269         2.215830        -1.591697
 C        -2.391837         3.129687        -0.751790
 C        -2.628123         2.307572         0.572720
 C        -1.344694         2.218865         1.230455
 H         0.906089         0.176565         0.084136
 H        -1.527317        -1.120909         0.686689
 H        -2.005624        -0.227833         2.154309
 H        -3.777196         0.570189        -0.423072
 H        -1.353950         0.331064        -1.666316
 H        -1.933687         4.103424        -0.675538
 H        -3.308785         3.318550        -1.273063
 H        -3.495444         2.821494         0.976012
 H        -0.608320         3.027261         1.000129
 H        -1.292473         2.038543         2.339837
