19
Iteration:  1041charge 0 multiplicity 1
 O         0.649916         0.723339         0.582344
 C        -0.751262         1.003092         0.552473
 C        -1.896332         0.006098         0.952782
 C        -2.759870         0.815013         0.009696
 C        -1.536885         1.014986        -0.821385
 O        -1.604199         2.288569        -1.646387
 C        -2.569014         3.094379        -0.772080
 C        -2.734710         2.290377         0.520169
 C        -1.279739         2.254589         1.306029
 H         0.745302         0.257797        -0.237719
 H        -1.798231        -1.022551         0.479325
 H        -2.116593        -0.113057         2.009635
 H        -3.706095         0.321882        -0.228661
 H        -1.172048         0.246772        -1.544727
 H        -1.998195         4.023042        -0.540905
 H        -3.529644         3.301219        -1.319814
 H        -3.482197         2.589652         1.220648
 H        -0.756791         3.145941         1.145866
 H        -1.395116         2.140538         2.342133
