19
Iteration:  1069
 O         0.551025         0.958446         0.623858
 C        -0.825653         0.949211         0.434515
 C        -1.861914        -0.120750         0.925585
 C        -2.764210         0.828280         0.027065
 C        -1.596250         0.948002        -0.871980
 O        -1.618807         2.199241        -1.589556
 C        -2.439867         3.156130        -0.706398
 C        -2.678181         2.350990         0.510685
 C        -1.266970         2.188569         1.243621
 H         0.837232         0.099973         0.275221
 H        -1.821798        -1.047945         0.418912
 H        -1.912008        -0.173539         2.082397
 H        -3.765131         0.443398        -0.185196
 H        -1.386602         0.129026        -1.549003
 H        -1.735061         3.928728        -0.465813
 H        -3.364190         3.479977        -1.237143
 H        -3.459646         2.663958         1.231323
 H        -0.624324         3.114565         0.995393
 H        -1.305734         2.061360         2.398215
