19
Iteration:  4226
 O         0.596312         0.652530         0.576144
 C        -0.713519         0.982449         0.505109
 C        -1.867559         0.003684         0.949283
 C        -2.782458         0.816613         0.030457
 C        -1.519204         1.040698        -0.900794
 O        -1.647933         2.288762        -1.566345
 C        -2.628928         3.093227        -0.765210
 C        -2.704384         2.316001         0.580167
 C        -1.234373         2.198235         1.219176
 H         1.136464         1.448496         0.694022
 H        -1.648592        -1.070458         0.639462
 H        -2.076905        -0.091294         2.032602
 H        -3.759646         0.487789        -0.353884
 H        -1.242317         0.095378        -1.516456
 H        -2.073590         4.097073        -0.838445
 H        -3.681293         3.247938        -1.332349
 H        -3.445485         2.747686         1.342998
 H        -0.495031         2.992773         0.783124
 H        -1.300301         2.385946         2.245668
