19
Iteration:  2834
 O         0.596485         0.724573         0.705209
 C        -0.762003         0.957232         0.524073
 C        -1.819076        -0.120681         0.984471
 C        -2.728089         0.801630        -0.041721
 C        -1.616800         1.053705        -0.927010
 O        -1.677466         2.289436        -1.565491
 C        -2.658527         3.130098        -0.752323
 C        -2.638967         2.344379         0.594951
 C        -1.183337         2.337351         1.155577
 H         0.963196         0.172972         0.004624
 H        -1.599245        -1.068349         0.455993
 H        -1.892777        -0.176671         2.066305
 H        -3.609380         0.365348        -0.480084
 H        -1.371287         0.259409        -1.686358
 H        -2.533893         4.209714        -0.838906
 H        -3.611859         3.004663        -1.284098
 H        -3.387268         2.495414         1.336385
 H        -0.458429         3.078542         0.741940
 H        -1.139558         2.216799         2.274005
