19
Iteration:  4154
 O         0.628719         0.578154         0.627815
 C        -0.769091         0.992294         0.591050
 C        -1.841846         0.008496         0.944378
 C        -2.738624         0.808926         0.016423
 C        -1.514271         1.108775        -0.889867
 O        -1.670432         2.296178        -1.543381
 C        -2.605171         3.109224        -0.817055
 C        -2.683134         2.273121         0.574159
 C        -1.248725         2.260472         1.149403
 H         0.960769         1.313294         0.024270
 H        -1.663226        -1.063408         0.709105
 H        -2.124638         0.168295         2.013893
 H        -3.723427         0.344036        -0.268707
 H        -1.326162         0.347618        -1.634585
 H        -2.514503         4.159326        -0.509399
 H        -3.671854         3.061866        -1.313833
 H        -3.595473         2.555547         1.191896
 H        -0.717909         2.967335         0.573712
 H        -0.958134         2.234755         2.317873
