19
Iteration:  3074
 O         0.609784         0.649004         0.523599
 C        -0.764581         0.958753         0.523712
 C        -1.823593        -0.024060         0.945237
 C        -2.764293         0.735169         0.047261
 C        -1.574065         1.042972        -0.853450
 O        -1.640950         2.321980        -1.578517
 C        -2.686835         3.160340        -0.813035
 C        -2.735369         2.410719         0.542868
 C        -1.168111         2.174556         1.265732
 H         1.185485         1.476014         0.640208
 H        -1.412145        -0.933916         0.667655
 H        -1.982794        -0.158188         2.023232
 H        -3.645881         0.170686        -0.226855
 H        -1.221006         0.306226        -1.721365
 H        -2.281603         4.115532        -0.599657
 H        -3.623508         3.089224        -1.411996
 H        -3.507326         2.707099         1.406966
 H        -0.568671         2.967205         1.098064
 H        -1.062453         2.040261         2.369491
