19
Iteration:  2207
 O         0.654154         0.534366         0.638073
 C        -0.725210         1.042469         0.505189
 C        -1.809909        -0.082307         0.984615
 C        -2.749483         0.810905         0.032688
 C        -1.530020         1.089832        -0.893942
 O        -1.730475         2.255394        -1.546840
 C        -2.690846         3.065094        -0.751559
 C        -2.630940         2.371356         0.534306
 C        -1.286128         2.344890         1.122652
 H         1.258418         1.280144         0.536059
 H        -1.413583        -1.026416         0.551556
 H        -1.993781        -0.179268         2.060674
 H        -3.706729         0.562357        -0.406210
 H        -1.125442         0.282320        -1.566244
 H        -2.376603         4.093080        -0.770190
 H        -3.801076         3.229466        -1.150655
 H        -3.419537         2.692666         1.111191
 H        -0.717182         3.168099         0.794125
 H        -1.231441         2.364288         2.247595
