19
Iteration:  4316
 O         0.584115         0.590657         0.641274
 C        -0.802444         1.024265         0.484345
 C        -1.808786        -0.018656         0.997220
 C        -2.772581         0.814167         0.041274
 C        -1.510214         1.079151        -0.886021
 O        -1.636126         2.367281        -1.512989
 C        -2.620444         3.066480        -0.781782
 C        -2.707186         2.256977         0.537185
 C        -1.173302         2.247235         1.158306
 H         1.172191         1.075843         0.074172
 H        -1.532641        -1.015873         0.660595
 H        -2.112983        -0.053743         2.050060
 H        -3.672038         0.440595        -0.456888
 H        -1.514310         0.342270        -1.659360
 H        -2.421549         4.161108        -0.891571
 H        -3.743791         3.011348        -1.299685
 H        -3.611339         2.566767         1.198888
 H        -0.567379         3.043967         0.683930
 H        -1.237623         2.281858         2.262080
