19
Iteration:   630
 O         0.601228         0.680989         0.513984
 C        -0.751740         0.995460         0.536034
 C        -1.874577         0.016215         0.915452
 C        -2.777014         0.822964         0.041299
 C        -1.586304         1.022376        -0.820596
 O        -1.571217         2.217225        -1.484655
 C        -2.570231         3.058003        -0.813650
 C        -2.720301         2.258890         0.562126
 C        -1.246956         2.342723         1.201473
 H         1.238564         1.413438         0.358430
 H        -1.846614        -1.075825         0.643147
 H        -2.138644        -0.072494         1.971433
 H        -3.719614         0.377194        -0.274993
 H        -1.384848         0.329007        -1.640220
 H        -2.100005         4.024213        -0.603661
 H        -3.417954         3.231808        -1.454016
 H        -3.674931         2.559877         1.230709
 H        -0.676266         3.230583         0.862085
 H        -1.248198         2.224174         2.246734
