19
Iteration:   967
 O         0.617672         0.568907         0.691143
 C        -0.739366         0.995889         0.484136
 C        -1.837607         0.053729         0.854082
 C        -2.757532         0.797179         0.033710
 C        -1.532346         1.070010        -0.910256
 O        -1.691322         2.302945        -1.484503
 C        -2.629448         3.042649        -0.758750
 C        -2.676212         2.334385         0.512468
 C        -1.230321         2.231417         1.178312
 H         1.160732         1.402298         0.802337
 H        -1.673803        -0.986644         0.426724
 H        -2.148416        -0.069906         1.834197
 H        -3.664307         0.481982        -0.445671
 H        -1.352664         0.182820        -1.565203
 H        -2.320748         4.097961        -0.637026
 H        -3.640304         3.125885        -1.260984
 H        -3.508737         2.790231         1.107396
 H        -0.624301         3.118615         0.662644
 H        -1.031602         2.414375         2.322771
