19
Iteration:  4347charge 0 multiplicity 1
 O         0.650877         0.514533         0.626131
 C        -0.746828         1.025759         0.501669
 C        -1.806679         0.023660         0.932790
 C        -2.823501         0.846372         0.020492
 C        -1.527550         1.074806        -0.911562
 O        -1.671408         2.314979        -1.493219
 C        -2.648783         3.052877        -0.739073
 C        -2.722769         2.265156         0.520292
 C        -1.230414         2.343090         1.173831
 H         1.271940         1.297784         0.586056
 H        -1.534948        -1.030598         0.628530
 H        -2.127734        -0.068881         2.002259
 H        -3.753786         0.376753        -0.359494
 H        -1.343189         0.342419        -1.765409
 H        -2.142598         4.072206        -0.723327
 H        -3.523810         2.883304        -1.326961
 H        -3.564371         2.509081         1.279880
 H        -0.560845         3.093159         0.639576
 H        -1.132374         2.485855         2.208345
