19
Iteration:   502
 O         0.624483         0.587125         0.709870
 C        -0.764662         0.966508         0.501344
 C        -1.892815        -0.084992         0.960356
 C        -2.750256         0.807281        -0.004584
 C        -1.568480         1.052770        -0.890560
 O        -1.619377         2.374597        -1.525668
 C        -2.722201         3.026882        -0.776348
 C        -2.701808         2.334197         0.585777
 C        -1.097873         2.310378         1.073698
 H         1.198286         1.362230         0.703182
 H        -1.704558        -1.015998         0.489805
 H        -2.319753         0.006788         1.970076
 H        -3.806520         0.529172        -0.408317
 H        -1.093490         0.371596        -1.668145
 H        -2.615707         4.149385        -0.971907
 H        -3.736001         2.667058        -1.214310
 H        -3.367598         2.782813         1.234638
 H        -0.552686         3.182305         0.608701
 H        -0.921083         2.433125         2.192579
