19
Iteration:  1178charge 0 multiplicity 1
 O         0.563474         0.759267         0.691550
 C        -0.778089         0.917669         0.498031
 C        -1.888230        -0.037322         0.882921
 C        -2.817308         0.771779         0.010711
 C        -1.532552         1.026493        -0.842621
 O        -1.594162         2.375143        -1.565462
 C        -2.593886         3.057445        -0.760801
 C        -2.693611         2.293973         0.556502
 C        -1.143167         2.295049         1.148768
 H         0.974012         0.041611         0.131515
 H        -1.663036        -1.037970         0.654759
 H        -2.161483        -0.037805         1.980728
 H        -3.810664         0.472965        -0.334655
 H        -1.269491         0.307342        -1.592784
 H        -2.430836         4.138399        -0.625792
 H        -3.587715         2.867221        -1.358104
 H        -3.357468         2.595457         1.354255
 H        -0.496541         3.202936         0.788600
 H        -1.158447         2.225052         2.337993
