19
Iteration:  3106charge 0 multiplicity 1
 O         0.589115         0.586953         0.634185
 C        -0.730978         1.006988         0.469301
 C        -1.859896        -0.002420         0.865752
 C        -2.722162         0.768259         0.010486
 C        -1.501823         1.017517        -0.921326
 O        -1.689928         2.283749        -1.570356
 C        -2.696986         3.059607        -0.623030
 C        -2.659807         2.371218         0.637524
 C        -1.197689         2.341636         1.102969
 H         1.168079         1.320091         0.714907
 H        -1.490766        -0.874793         0.394149
 H        -2.061014        -0.141403         1.916911
 H        -3.686826         0.389849        -0.284686
 H        -1.292147         0.208287        -1.735059
 H        -2.329370         4.023034        -0.395068
 H        -3.675010         3.147991        -1.249638
 H        -3.531732         2.570735         1.368746
 H        -0.702797         3.205229         0.787173
 H        -1.170470         2.279422         2.233372
