19
Iteration:  3070
 O         0.583640         0.671022         0.498633
 C        -0.782438         0.931300         0.540066
 C        -1.822084        -0.036419         0.958448
 C        -2.760445         0.733086         0.054321
 C        -1.558740         1.066038        -0.871531
 O        -1.616008         2.286262        -1.553751
 C        -2.665038         3.157713        -0.764200
 C        -2.737336         2.402751         0.503996
 C        -1.186674         2.204357         1.225584
 H         1.012208         1.495085         0.496465
 H        -1.310128        -1.066655         0.645347
 H        -2.022400        -0.111886         1.995038
 H        -3.636488         0.107258        -0.182278
 H        -1.218137         0.404867        -1.599630
 H        -2.331514         4.189984        -0.557644
 H        -3.675271         3.116646        -1.414339
 H        -3.249085         2.801721         1.432709
 H        -0.460251         3.141022         1.202968
 H        -1.258504         1.915090         2.368983
