19
Iteration:   754
 O         0.589152         0.694124         0.370359
 C        -0.786108         1.007935         0.555873
 C        -1.883153        -0.043154         1.038548
 C        -2.825799         0.815114         0.026552
 C        -1.503426         1.013437        -0.805918
 O        -1.551499         2.248806        -1.570444
 C        -2.449131         3.090183        -0.773260
 C        -2.777143         2.256152         0.542731
 C        -1.342057         2.320480         1.322591
 H         1.107517         1.520554         0.152410
 H        -1.769621        -0.867850         0.477226
 H        -1.962512        -0.231955         2.126181
 H        -3.749678         0.342601        -0.492684
 H        -1.260280         0.081595        -1.364044
 H        -1.890743         4.048960        -0.591330
 H        -3.223954         3.304887        -1.466371
 H        -3.602433         2.578354         1.171947
 H        -0.829501         3.252401         1.137566
 H        -1.435620         2.175686         2.434501
