19
Iteration:  2447
 O         0.612431         0.745556         0.652831
 C        -0.735662         1.004617         0.432770
 C        -1.820605        -0.078257         0.967187
 C        -2.750311         0.830360         0.102194
 C        -1.579012         0.985525        -0.828154
 O        -1.759043         2.277483        -1.610719
 C        -2.543582         3.098048        -0.794494
 C        -2.641426         2.309936         0.560660
 C        -1.274741         2.246049         1.147109
 H         1.137271         1.379840         0.090854
 H        -1.730160        -1.025363         0.444760
 H        -2.016072        -0.160916         2.019311
 H        -3.543814         0.355200        -0.423172
 H        -1.254795         0.116031        -1.501360
 H        -1.951764         3.954497        -0.606342
 H        -3.493746         3.354664        -1.243515
 H        -3.341138         2.567897         1.431896
 H        -0.707838         3.160661         1.101903
 H        -1.429021         1.992196         2.237880
