19
Iteration:  4512
 O         0.612008         0.602507         0.641054
 C        -0.745365         0.967862         0.491173
 C        -1.830116        -0.046684         0.956802
 C        -2.772747         0.864831        -0.010410
 C        -1.576756         1.104458        -0.879009
 O        -1.649542         2.275442        -1.537466
 C        -2.638746         3.081594        -0.771351
 C        -2.709068         2.292350         0.547627
 C        -1.208657         2.233214         1.140575
 H         1.142941         1.411387         0.780635
 H        -1.538219        -1.082058         0.696478
 H        -2.084836         0.148756         2.013540
 H        -3.582355         0.512994        -0.567429
 H        -1.426541         0.261521        -1.460193
 H        -2.081552         4.064518        -0.592523
 H        -3.601519         3.264603        -1.230877
 H        -3.377218         2.706277         1.374425
 H        -0.719370         3.232036         0.706240
 H        -1.171883         2.270072         2.189096
