19
Iteration:  4598charge 0 multiplicity 1
 O         0.555433         0.650441         0.615764
 C        -0.813357         0.959639         0.483954
 C        -1.866760        -0.019448         0.993563
 C        -2.798867         0.845146         0.037646
 C        -1.464137         1.008775        -0.904233
 O        -1.563002         2.317521        -1.515119
 C        -2.657383         3.142418        -0.782085
 C        -2.709568         2.308470         0.572080
 C        -1.175039         2.211684         1.166033
 H         0.982333         1.152483        -0.067199
 H        -1.672826        -1.052397         0.843759
 H        -1.951934         0.052726         2.068929
 H        -3.561021         0.397913        -0.433874
 H        -1.331229         0.322685        -1.671455
 H        -2.347290         4.181972        -0.709157
 H        -3.586237         2.936822        -1.361481
 H        -3.568918         2.580838         1.166877
 H        -0.767693         3.128759         0.803916
 H        -1.067804         2.147344         2.224854
