19
Iteration:  2180charge 0 multiplicity 1
 O         0.563073         0.662531         0.702511
 C        -0.730746         1.069160         0.514353
 C        -1.803212        -0.006680         0.977678
 C        -2.741607         0.825112         0.074614
 C        -1.585411         1.048561        -0.980745
 O        -1.782280         2.235461        -1.697706
 C        -2.622567         3.102401        -0.762026
 C        -2.626246         2.231804         0.550000
 C        -1.177326         2.246017         1.247789
 H         1.127658         1.329666         0.316763
 H        -1.594433        -0.980685         0.502234
 H        -1.870872        -0.129514         2.105582
 H        -3.671428         0.380288        -0.366190
 H        -1.232621         0.244935        -1.603563
 H        -1.946056         3.978656        -0.501181
 H        -3.536302         3.461843        -1.149561
 H        -3.557564         2.627061         1.163344
 H        -0.554005         3.167507         0.969463
 H        -1.036951         2.168774         2.297701
