19
Iteration:  4197
 O         0.580115         0.572019         0.656421
 C        -0.704363         0.969289         0.469136
 C        -1.812288        -0.048754         0.921923
 C        -2.786313         0.865318         0.053787
 C        -1.556380         1.068652        -0.898958
 O        -1.645446         2.350951        -1.525439
 C        -2.668067         2.991150        -0.784502
 C        -2.708780         2.301638         0.555264
 C        -1.193929         2.328116         1.178858
 H         1.217494         1.335542         0.528995
 H        -1.639427        -1.045608         0.452745
 H        -1.918649        -0.055802         2.017954
 H        -3.771349         0.586278        -0.390739
 H        -1.310217         0.230934        -1.559122
 H        -2.240650         3.969736        -0.776844
 H        -3.549066         3.078969        -1.321537
 H        -3.464857         2.756478         1.284318
 H        -0.608564         3.057395         0.629430
 H        -1.325734         2.426281         2.369845
