19
Iteration:  2134charge 0 multiplicity 1
 O         0.565288         0.698461         0.508445
 C        -0.790567         0.988744         0.531253
 C        -1.807198        -0.062202         1.014914
 C        -2.805885         0.816561         0.092199
 C        -1.556472         1.058140        -0.818938
 O        -1.596089         2.311417        -1.565334
 C        -2.553424         3.047985        -0.800986
 C        -2.670157         2.258204         0.550313
 C        -1.265111         2.263822         1.135772
 H         0.929300         1.538144         0.234002
 H        -1.516388        -1.083586         0.526914
 H        -2.023398        -0.200565         2.036780
 H        -3.879008         0.689242        -0.119450
 H        -1.221102         0.187538        -1.414729
 H        -2.342237         4.174093        -0.618575
 H        -3.442024         2.965617        -1.359414
 H        -3.549643         2.504866         1.215024
 H        -0.597484         3.142195         0.940471
 H        -1.294406         2.284264         2.285450
