19
Iteration:  4753
 O         0.605192         0.580557         0.585707
 C        -0.739554         0.962228         0.498816
 C        -1.850229        -0.000512         0.951906
 C        -2.768703         0.877059        -0.039931
 C        -1.545638         0.969337        -0.875275
 O        -1.568502         2.307946        -1.473778
 C        -2.646068         3.087742        -0.744805
 C        -2.682529         2.302397         0.610119
 C        -1.224917         2.308581         1.129177
 H         1.041684         1.365000         0.146377
 H        -1.732478        -1.091082         0.628761
 H        -2.364566         0.042431         1.922580
 H        -3.798139         0.543446        -0.291494
 H        -1.478314         0.204937        -1.688345
 H        -2.414968         4.230825        -0.836048
 H        -3.709150         3.046223        -1.296795
 H        -3.614045         2.731396         1.204390
 H        -0.558883         3.254268         1.068636
 H        -1.273684         2.185428         2.268311
