19
Iteration:  1740
 O         0.547253         0.698724         0.515951
 C        -0.762459         0.954220         0.484810
 C        -1.825539        -0.092972         0.977231
 C        -2.724449         0.803152         0.073510
 C        -1.536921         1.002094        -0.901174
 O        -1.617221         2.347712        -1.543166
 C        -2.641182         3.064257        -0.780791
 C        -2.651801         2.331861         0.571507
 C        -1.227223         2.302850         1.157983
 H         0.771768         0.869116         1.480062
 H        -1.797915        -1.126913         0.571538
 H        -1.939216         0.018503         2.075435
 H        -3.694540         0.556967        -0.196861
 H        -1.277806         0.297180        -1.720709
 H        -2.297120         4.057972        -0.671122
 H        -3.600133         3.047845        -1.293741
 H        -3.360668         2.561349         1.340014
 H        -0.564261         3.290944         0.876340
 H        -1.499003         2.117553         2.241707
