19
Iteration:  1124charge 0 multiplicity 1
 O         0.584909         0.623219         0.650769
 C        -0.786097         1.006350         0.560035
 C        -1.846360         0.028191         0.967442
 C        -2.709681         0.826936        -0.009258
 C        -1.456135         1.144717        -0.896694
 O        -1.655086         2.327120        -1.530022
 C        -2.634720         3.019076        -0.803374
 C        -2.692072         2.288494         0.514940
 C        -1.223602         2.252908         1.167043
 H         0.602583        -0.267959         0.184848
 H        -1.450557        -0.834437         0.586094
 H        -2.151906        -0.136101         2.057664
 H        -3.730261         0.508805        -0.246678
 H        -1.264291         0.384124        -1.614254
 H        -2.390034         4.076633        -0.734646
 H        -3.682834         3.010201        -1.341012
 H        -3.364503         2.540589         1.294673
 H        -0.786002         3.248258         0.819477
 H        -1.286877         2.288161         2.336194
