19
Iteration:   102
 O         0.571155         0.848722         0.355101
 C        -0.852624         0.923572         0.486372
 C        -1.843463        -0.153556         1.091238
 C        -2.849650         0.867848         0.092724
 C        -1.551647         1.019294        -0.907006
 O        -1.438937         2.307973        -1.515344
 C        -2.466862         3.047572        -0.800557
 C        -2.746480         2.344203         0.552108
 C        -1.344391         2.197973         1.230503
 H         1.009794         1.026907         1.230047
 H        -1.752962        -1.146065         0.756213
 H        -2.169971        -0.010633         2.199102
 H        -3.893226         0.471137        -0.243721
 H        -1.252156         0.245041        -1.733538
 H        -2.042492         4.065305        -0.664616
 H        -3.370126         2.975516        -1.323044
 H        -3.510180         2.780872         1.301148
 H        -0.675938         2.986990         1.045595
 H        -1.408445         1.958000         2.313036
