19
Iteration:   654
 O         0.588393         0.515112         0.699229
 C        -0.732381         0.933668         0.498930
 C        -1.822663         0.040277         1.060932
 C        -2.722477         0.761437         0.033386
 C        -1.479697         1.098577        -0.919722
 O        -1.720378         2.384043        -1.624167
 C        -2.701622         3.072067        -0.782223
 C        -2.628966         2.311210         0.560747
 C        -1.255435         2.300205         1.109182
 H         1.211698         1.149483         0.364144
 H        -1.758228        -0.989126         0.871043
 H        -1.996159         0.057652         2.161779
 H        -3.487418         0.222185        -0.615365
 H        -1.132904         0.470695        -1.818128
 H        -2.348486         4.135298        -0.688767
 H        -3.649797         3.057330        -1.204456
 H        -3.420040         2.756777         1.262199
 H        -0.784374         3.254281         0.817573
 H        -1.222564         2.102796         2.189481
