19
Iteration:   592charge 0 multiplicity 1
 O         0.607243         0.827349         0.503704
 C        -0.779230         0.920488         0.503325
 C        -1.847622        -0.070660         1.003899
 C        -2.800879         0.829505         0.135806
 C        -1.681283         1.015565        -0.922612
 O        -1.528208         2.244629        -1.525557
 C        -2.489270         3.086195        -0.874345
 C        -2.663114         2.301868         0.525771
 C        -1.273018         2.203094         1.299175
 H         0.708689         1.740372         0.249718
 H        -1.944707        -1.009047         0.507919
 H        -2.133010        -0.069539         2.096136
 H        -3.776396         0.415316        -0.245113
 H        -1.566186         0.090278        -1.518032
 H        -1.964677         4.045031        -0.710584
 H        -3.438483         3.196678        -1.572501
 H        -3.384643         2.638674         1.147989
 H        -0.725742         3.138700         1.177962
 H        -1.434637         2.044841         2.436114
