19
Iteration:   854charge 0 multiplicity 1
 O         0.660145         0.555889         0.677358
 C        -0.697616         0.988842         0.499363
 C        -1.868498         0.031067         0.939289
 C        -2.740665         0.843765         0.055112
 C        -1.482524         1.086694        -0.921275
 O        -1.651068         2.367503        -1.532973
 C        -2.651365         2.989145        -0.771206
 C        -2.749811         2.275140         0.570753
 C        -1.280886         2.381368         1.132130
 H         0.760710        -0.329192         0.272185
 H        -1.870609        -0.948126         0.577901
 H        -1.919513         0.062403         1.983677
 H        -3.723838         0.616695        -0.443446
 H        -1.103879         0.454745        -1.730107
 H        -2.471370         4.097336        -0.763644
 H        -3.670911         2.819043        -1.279692
 H        -3.527168         2.488929         1.216614
 H        -0.688176         3.233015         0.848211
 H        -1.085907         2.401436         2.237406
