19
Iteration:  2894charge 0 multiplicity 1
 O         0.626808         0.778254         0.434187
 C        -0.787046         0.977067         0.553844
 C        -1.901244        -0.062835         0.973258
 C        -2.747037         0.784302         0.086663
 C        -1.551269         1.087041        -0.893110
 O        -1.634168         2.333000        -1.554649
 C        -2.544950         3.026648        -0.773378
 C        -2.678634         2.257533         0.568349
 C        -1.261612         2.288647         1.194485
 H         0.832980         0.246480         1.183060
 H        -1.768179        -1.039362         0.469708
 H        -2.096565        -0.298146         2.044689
 H        -3.742886         0.351878        -0.170922
 H        -1.162577         0.302063        -1.489739
 H        -2.162423         4.016404        -0.404288
 H        -3.504355         3.022415        -1.337925
 H        -3.479561         2.730306         1.172935
 H        -0.622599         3.105337         0.929920
 H        -1.328487         2.308377         2.271614
