19
Iteration:  2700charge 0 multiplicity 1
 O         0.657075         0.559303         0.690505
 C        -0.684665         0.969539         0.559074
 C        -1.843925        -0.052364         0.989244
 C        -2.757176         0.845334         0.010586
 C        -1.602626         1.098143        -0.927899
 O        -1.737962         2.333554        -1.558280
 C        -2.660541         3.039234        -0.754586
 C        -2.630414         2.276415         0.500924
 C        -1.220278         2.316524         1.091466
 H         1.140015         1.365754         0.717165
 H        -1.729307        -1.021312         0.533984
 H        -2.013857        -0.081340         1.989358
 H        -3.769565         0.379919        -0.247876
 H        -1.005208         0.368258        -1.611067
 H        -2.308361         4.023993        -0.810469
 H        -3.708406         3.158279        -1.104011
 H        -3.442320         2.728489         1.158912
 H        -0.690171         3.149080         0.662563
 H        -1.200296         2.539564         2.244878
