19
Iteration:  1161
 O         0.621364         0.616214         0.742562
 C        -0.754534         0.953982         0.496702
 C        -1.851662        -0.040827         1.004213
 C        -2.728105         0.867020         0.023232
 C        -1.517081         1.114980        -0.946456
 O        -1.603413         2.400387        -1.416519
 C        -2.746152         3.043677        -0.804262
 C        -2.657830         2.298945         0.515462
 C        -1.239802         2.268071         1.039667
 H         0.873430         0.035493        -0.018476
 H        -1.781404        -1.057821         0.491947
 H        -2.042843        -0.117559         2.082579
 H        -3.656556         0.415047        -0.379250
 H        -1.266696         0.262023        -1.663067
 H        -2.384802         4.080342        -0.781247
 H        -3.611560         2.912751        -1.376486
 H        -3.502714         2.598198         1.149069
 H        -0.689162         3.023033         0.574386
 H        -1.095589         2.339731         2.048687
