19
Iteration:  4675
 O         0.634049         0.648317         0.694228
 C        -0.767401         0.923240         0.455656
 C        -1.889257        -0.048064         1.001657
 C        -2.717076         0.839518        -0.016331
 C        -1.578458         1.043336        -0.938705
 O        -1.660604         2.286161        -1.679328
 C        -2.605302         3.130664        -0.716006
 C        -2.665567         2.342526         0.635941
 C        -1.226131         2.218609         1.191485
 H         1.073792         1.493671         0.488628
 H        -1.778403        -0.998358         0.507578
 H        -2.081829        -0.037037         2.066327
 H        -3.624564         0.505564        -0.351296
 H        -1.477014         0.261220        -1.631048
 H        -2.098201         4.095205        -0.526020
 H        -3.630887         3.312003        -1.279691
 H        -3.493753         2.606067         1.295306
 H        -0.624713         3.033548         0.821781
 H        -1.263711         2.190468         2.277724
