19
Iteration:  1397charge 0 multiplicity 1
 O         0.582996         0.794330         0.610408
 C        -0.757049         0.957534         0.558552
 C        -1.818991        -0.153115         0.984461
 C        -2.734864         0.821648         0.016295
 C        -1.558388         1.042211        -0.880087
 O        -1.680501         2.264196        -1.595841
 C        -2.464172         3.122097        -0.791208
 C        -2.705470         2.407057         0.554987
 C        -1.323828         2.214905         1.211629
 H         0.936802         0.260217        -0.161658
 H        -1.750690        -1.146043         0.563107
 H        -2.138067        -0.050619         2.115897
 H        -3.791372         0.595980        -0.307969
 H        -1.315179         0.261515        -1.542288
 H        -1.856499         4.031427        -0.619460
 H        -3.415755         3.355431        -1.290376
 H        -3.654593         2.529061         1.058523
 H        -0.604499         3.063935         1.120145
 H        -1.313129         2.039150         2.250912
