19
Iteration:  3821
 O         0.558160         0.639368         0.602647
 C        -0.758319         0.977539         0.530472
 C        -1.786096        -0.066641         1.021180
 C        -2.736395         0.821508         0.070560
 C        -1.630332         1.036020        -0.907117
 O        -1.615971         2.333640        -1.634539
 C        -2.532371         3.083852        -0.785661
 C        -2.781306         2.274978         0.579817
 C        -1.244151         2.305857         1.207131
 H         0.991439         1.384607         0.206506
 H        -1.654371        -1.064002         0.584320
 H        -1.962463        -0.152882         2.115521
 H        -3.590002         0.413703        -0.536049
 H        -1.236048         0.417981        -1.703407
 H        -2.127619         4.026920        -0.457526
 H        -3.427089         3.210380        -1.300660
 H        -3.661654         2.544201         1.143191
 H        -0.673944         3.134105         0.772733
 H        -0.925692         2.134932         2.363787
