19
Iteration:  1253
 O         0.608578         0.829466         0.666995
 C        -0.768269         0.983542         0.464445
 C        -1.902606        -0.003491         0.904179
 C        -2.797396         0.818250         0.006099
 C        -1.540079         1.058127        -0.886929
 O        -1.662356         2.193329        -1.561609
 C        -2.512281         3.071535        -0.737140
 C        -2.658814         2.289316         0.552355
 C        -1.270669         2.219733         1.223704
 H         0.862878         0.119543         0.083566
 H        -1.651906        -0.993515         0.343965
 H        -2.100357        -0.113405         2.031490
 H        -3.756678         0.563592        -0.430428
 H        -1.319685         0.320581        -1.649798
 H        -1.806392         3.897679        -0.567864
 H        -3.448314         3.376082        -1.165786
 H        -3.430706         2.811051         1.242826
 H        -0.681296         3.174821         1.033443
 H        -1.223700         2.056751         2.348084
