19
Iteration:   980charge 0 multiplicity 1
 O         0.572118         0.592340         0.776935
 C        -0.731908         0.948985         0.467028
 C        -1.856299        -0.091226         0.890609
 C        -2.746294         0.864926        -0.014783
 C        -1.525301         1.029066        -0.885721
 O        -1.608949         2.377148        -1.469702
 C        -2.701391         3.040521        -0.758279
 C        -2.681915         2.334837         0.626843
 C        -1.219731         2.342154         0.980042
 H         1.200701         1.106951         0.278269
 H        -1.719516        -1.065404         0.373901
 H        -1.968087        -0.197995         1.986063
 H        -3.688332         0.461804        -0.359909
 H        -1.335413         0.303779        -1.680423
 H        -2.404516         4.088614        -0.689573
 H        -3.634166         2.880553        -1.285378
 H        -3.446659         2.629465         1.428818
 H        -0.595599         3.199704         0.520918
 H        -1.081942         2.267563         2.125925
