19
Iteration:  4407
 O         0.595399         0.683102         0.606969
 C        -0.782638         0.975507         0.442480
 C        -1.846915        -0.057419         0.913710
 C        -2.809424         0.841281         0.085696
 C        -1.495235         1.026336        -0.868452
 O        -1.619695         2.219449        -1.559322
 C        -2.545903         3.110627        -0.733248
 C        -2.713580         2.312343         0.553626
 C        -1.274156         2.342588         1.152244
 H         1.188930         1.416773         0.288022
 H        -1.664949        -1.068092         0.554865
 H        -2.114566        -0.134913         1.968120
 H        -3.810116         0.512156        -0.334381
 H        -1.378584         0.117990        -1.490775
 H        -2.219992         4.077035        -0.431466
 H        -3.534073         3.348443        -1.332319
 H        -3.381505         2.420667         1.363849
 H        -0.556726         3.089871         1.115985
 H        -1.341195         1.980516         2.253583
