19
Iteration:  3745charge 0 multiplicity 1
 O         0.554223         0.585267         0.612268
 C        -0.737103         0.957957         0.476008
 C        -1.786973        -0.017069         1.003648
 C        -2.757225         0.855405        -0.001603
 C        -1.527328         0.997536        -0.890907
 O        -1.635736         2.343411        -1.493758
 C        -2.663427         3.051425        -0.776085
 C        -2.690690         2.299310         0.541373
 C        -1.235877         2.353243         1.149777
 H         1.142491         1.341909         0.368682
 H        -1.568854        -1.019462         0.629308
 H        -1.989314        -0.247778         2.059639
 H        -3.698792         0.405261        -0.377803
 H        -1.561818         0.251479        -1.683562
 H        -2.228762         4.013838        -0.587086
 H        -3.593998         3.085070        -1.363304
 H        -3.423930         2.524651         1.297613
 H        -0.638691         3.163446         0.708916
 H        -1.167839         2.464273         2.300724
