19
Iteration:  2321
 O         0.670142         0.680188         0.662720
 C        -0.746219         0.977613         0.475561
 C        -1.774769        -0.047631         0.949557
 C        -2.823950         0.795406         0.020649
 C        -1.590458         1.019562        -0.854518
 O        -1.779076         2.270861        -1.664501
 C        -2.532490         3.069355        -0.749162
 C        -2.670319         2.311560         0.560550
 C        -1.262490         2.285639         1.221496
 H         1.171346         1.465697         0.431410
 H        -1.619554        -1.057085         0.647272
 H        -1.753608         0.010471         2.028418
 H        -3.807503         0.450547        -0.441829
 H        -1.295133         0.202856        -1.468238
 H        -2.052559         4.114647        -0.719329
 H        -3.541103         3.449259        -1.188079
 H        -3.535438         2.682312         1.104830
 H        -0.643162         3.245856         1.112705
 H        -1.192806         2.091423         2.302570
