19
Iteration:  2546
 O         0.570976         0.588434         0.723051
 C        -0.737218         0.946448         0.546605
 C        -1.760806         0.023216         0.906714
 C        -2.707819         0.804704        -0.020845
 C        -1.549352         1.043851        -0.926646
 O        -1.741139         2.319508        -1.561578
 C        -2.647020         3.001745        -0.785586
 C        -2.633543         2.389541         0.631984
 C        -1.243426         2.319374         1.133830
 H         0.924362         1.353311         0.148009
 H        -1.558533        -1.022116         0.621898
 H        -1.963330        -0.041327         1.923417
 H        -3.635113         0.366712        -0.400073
 H        -1.229754         0.185877        -1.637827
 H        -2.515245         4.048588        -0.736158
 H        -3.715529         2.931917        -1.313021
 H        -3.486432         2.732874         1.308054
 H        -0.647130         3.095194         0.717863
 H        -0.918849         2.290576         2.231491
