19
Iteration:  4922charge 0 multiplicity 1
 O         0.595329         0.536242         0.638918
 C        -0.741400         0.912721         0.489463
 C        -1.798082         0.009232         0.940734
 C        -2.713537         0.835105         0.033170
 C        -1.572923         1.046350        -0.961571
 O        -1.690920         2.322367        -1.523138
 C        -2.595819         3.069707        -0.795629
 C        -2.709411         2.354265         0.575309
 C        -1.242021         2.357316         1.221007
 H         1.193473         1.279158         0.400999
 H        -1.604811        -1.049689         0.559921
 H        -2.216266         0.028678         1.990736
 H        -3.602962         0.525105        -0.558734
 H        -1.424439         0.121864        -1.541074
 H        -2.085881         3.996979        -0.539047
 H        -3.623188         2.981776        -1.204959
 H        -3.600862         2.668328         1.099658
 H        -0.572833         3.237530         0.851222
 H        -1.271273         2.269832         2.334498
