19
Iteration:  1044
 O         0.646024         0.746653         0.582514
 C        -0.782071         0.985947         0.560513
 C        -1.873556        -0.014148         0.961377
 C        -2.780806         0.796217         0.031757
 C        -1.539560         1.023134        -0.834461
 O        -1.621481         2.307711        -1.650892
 C        -2.513088         3.086116        -0.787533
 C        -2.732611         2.294058         0.531658
 C        -1.275490         2.247471         1.287882
 H         0.746955         0.229482        -0.260331
 H        -1.770253        -1.016881         0.480356
 H        -2.200022        -0.090807         1.951776
 H        -3.719592         0.340434        -0.303373
 H        -1.123141         0.223651        -1.494917
 H        -1.946683         4.020304        -0.568129
 H        -3.552237         3.249454        -1.314969
 H        -3.494777         2.620589         1.291667
 H        -0.734062         3.253783         1.140844
 H        -1.444697         2.099154         2.429837
