19
Iteration:  3361
 O         0.612131         0.659487         0.562450
 C        -0.748430         0.950246         0.460983
 C        -1.773392        -0.114403         1.069826
 C        -2.708041         0.759622         0.077022
 C        -1.607834         1.087541        -0.918631
 O        -1.705699         2.350064        -1.624105
 C        -2.552994         3.103477        -0.762003
 C        -2.684999         2.306521         0.547522
 C        -1.313141         2.251913         1.266971
 H         0.987428         1.460621         0.218787
 H        -1.495167        -1.117775         0.623255
 H        -1.954224         0.005183         2.123130
 H        -3.656427         0.420684        -0.463331
 H        -1.414317         0.317729        -1.669575
 H        -2.126301         4.090197        -0.540793
 H        -3.548283         3.256406        -1.185029
 H        -3.522003         2.791899         0.991081
 H        -0.728659         3.195115         0.911776
 H        -1.196861         2.100767         2.349992
