19
Iteration:   822charge 0 multiplicity 1
 O         0.563377         0.611291         0.791841
 C        -0.729482         0.949577         0.506236
 C        -1.868171        -0.054481         0.955141
 C        -2.683192         0.781403         0.002170
 C        -1.527232         1.056938        -0.934696
 O        -1.735892         2.328808        -1.513471
 C        -2.662673         3.113234        -0.762646
 C        -2.694562         2.314261         0.527721
 C        -1.153957         2.384445         1.066798
 H         0.994944         0.422263        -0.037698
 H        -1.634231        -1.014179         0.535453
 H        -2.030992        -0.073662         1.974692
 H        -3.550866         0.477326        -0.619912
 H        -1.101621         0.467660        -1.726857
 H        -2.401014         4.172817        -0.690589
 H        -3.655344         3.017421        -1.091159
 H        -3.372577         2.425861         1.273354
 H        -0.402062         3.076747         0.674403
 H        -1.076788         2.262324         2.209879
