19
Iteration:   489charge 0 multiplicity 1
 O         0.539458         0.636104         0.594146
 C        -0.799040         0.946071         0.553782
 C        -1.874443        -0.052112         0.941368
 C        -2.789151         0.760735         0.056559
 C        -1.488935         1.086123        -0.868746
 O        -1.607782         2.322865        -1.510687
 C        -2.670480         3.046327        -0.801977
 C        -2.579106         2.340428         0.535385
 C        -1.223468         2.328009         1.113905
 H         0.956716         1.529237         0.662838
 H        -1.640430        -1.127300         0.683682
 H        -1.949994        -0.171964         1.986747
 H        -3.725556         0.344900        -0.332174
 H        -1.231663         0.274069        -1.537100
 H        -2.364820         4.147509        -0.588893
 H        -3.638019         3.028152        -1.432506
 H        -3.363716         2.556683         1.331148
 H        -0.456612         3.040695         0.598304
 H        -1.214931         2.383065         2.203020
