19
Iteration:  2198
 O         0.632334         0.557552         0.664776
 C        -0.775006         1.008227         0.530594
 C        -1.770118        -0.070858         0.951394
 C        -2.721277         0.724246        -0.014470
 C        -1.565735         1.052085        -0.882358
 O        -1.792266         2.288438        -1.624773
 C        -2.604181         3.104437        -0.778228
 C        -2.644592         2.400188         0.590916
 C        -1.247540         2.380369         1.174243
 H         1.171561         1.326557         0.462625
 H        -1.316923        -1.085602         0.677805
 H        -2.151334        -0.100171         1.909321
 H        -3.715898         0.353149        -0.148754
 H        -1.237697         0.367736        -1.697789
 H        -2.131295         4.116038        -0.784867
 H        -3.665913         2.909870        -1.147059
 H        -3.380437         2.659823         1.264175
 H        -0.621148         3.223750         0.874356
 H        -1.271824         2.321905         2.356791
