19
Iteration:   889charge 0 multiplicity 1
 O         0.573565         0.880937         0.496269
 C        -0.840851         0.905715         0.535995
 C        -1.875386        -0.123701         0.994958
 C        -2.812849         0.781207         0.069961
 C        -1.570985         1.058035        -0.872856
 O        -1.566597         2.311235        -1.523574
 C        -2.481625         3.072741        -0.780285
 C        -2.664945         2.323087         0.546295
 C        -1.253403         2.247720         1.181556
 H         1.009721         0.152365         0.968434
 H        -1.979939        -1.075350         0.426830
 H        -1.942565        -0.186712         2.025261
 H        -3.860699         0.537604        -0.143631
 H        -1.233316         0.292827        -1.590191
 H        -2.169159         4.119905        -0.764949
 H        -3.385883         3.007548        -1.415135
 H        -3.554232         2.666083         1.011937
 H        -0.550647         3.055808         0.765353
 H        -1.258713         2.006556         2.317372
