19
Iteration:  2915charge 0 multiplicity 1
 O         0.613546         0.718794         0.439767
 C        -0.736437         0.971397         0.452187
 C        -1.799745        -0.022254         0.897966
 C        -2.787060         0.882248        -0.022222
 C        -1.536731         0.975144        -0.853208
 O        -1.563576         2.211324        -1.476938
 C        -2.680213         3.134947        -0.744210
 C        -2.712684         2.344072         0.654536
 C        -1.293658         2.262300         1.201458
 H         0.872603         0.994355         1.381613
 H        -1.612218        -1.083572         0.648274
 H        -2.115400        -0.063215         2.001165
 H        -3.728068         0.557007        -0.537353
 H        -1.331389         0.106407        -1.365519
 H        -2.226656         4.135278        -0.536026
 H        -3.657013         2.990182        -1.280135
 H        -3.542077         2.502617         1.324297
 H        -0.656110         3.120195         0.956076
 H        -1.057753         2.104221         2.227447
