19
Iteration:  3678
 O         0.670471         0.635889         0.639165
 C        -0.734686         1.011374         0.477377
 C        -1.883024         0.032433         0.876089
 C        -2.858910         0.786810         0.115741
 C        -1.503164         1.005205        -0.855924
 O        -1.662053         2.260794        -1.574343
 C        -2.606606         3.068961        -0.744997
 C        -2.692524         2.345740         0.593824
 C        -1.244245         2.282320         1.135492
 H         1.186404         1.409354         0.326774
 H        -1.551761        -0.942576         0.456288
 H        -1.919349        -0.241126         1.904408
 H        -3.770858         0.594315        -0.579239
 H        -1.375990         0.177373        -1.568044
 H        -2.240709         4.030823        -0.520939
 H        -3.564762         2.962035        -1.317168
 H        -3.428838         2.837579         1.198088
 H        -0.716600         3.160421         0.875539
 H        -1.290540         2.084860         2.292952
