19
Iteration:   140
 O         0.621698         0.816718         0.393919
 C        -0.800245         0.970257         0.565646
 C        -1.882918        -0.158294         0.989360
 C        -2.814354         0.839524        -0.006690
 C        -1.538104         1.000796        -0.830109
 O        -1.630642         2.205806        -1.541004
 C        -2.433953         3.088865        -0.737986
 C        -2.715547         2.365928         0.572641
 C        -1.303650         2.260955         1.237477
 H         1.108935         1.152611         1.175309
 H        -1.632090        -1.281620         0.627183
 H        -2.337516        -0.280514         1.976451
 H        -3.769466         0.675061        -0.429311
 H        -1.204849         0.210220        -1.424431
 H        -2.015634         4.105219        -0.674067
 H        -3.355145         3.412864        -1.485924
 H        -3.605040         2.748811         1.051036
 H        -0.640329         3.189098         0.989858
 H        -1.356052         2.107715         2.329556
