19
Iteration:  4039charge 0 multiplicity 1
 O         0.590970         0.551683         0.686697
 C        -0.761695         0.984083         0.525169
 C        -1.808511        -0.027360         0.944815
 C        -2.702528         0.825285         0.070450
 C        -1.525288         1.057657        -0.937110
 O        -1.699947         2.346409        -1.519753
 C        -2.649059         3.055083        -0.801227
 C        -2.684226         2.343398         0.558937
 C        -1.270161         2.310119         1.137723
 H         1.283333         1.147270         0.280057
 H        -1.832932        -0.941301         0.383694
 H        -1.809638        -0.158976         2.045510
 H        -3.636800         0.406606        -0.260704
 H        -1.321384         0.277350        -1.664179
 H        -2.351940         4.097829        -0.796712
 H        -3.582500         3.000726        -1.424768
 H        -3.315580         2.738592         1.312292
 H        -0.540775         3.060750         0.567075
 H        -1.151422         2.238104         2.183203
