19
Iteration:  4782charge 0 multiplicity 1
 O         0.543484         0.558699         0.692696
 C        -0.746963         0.958659         0.497710
 C        -1.804533        -0.063622         0.952697
 C        -2.802223         0.826894         0.054798
 C        -1.551894         1.057739        -0.854257
 O        -1.633300         2.391935        -1.584805
 C        -2.650147         3.114132        -0.710635
 C        -2.655862         2.288792         0.549232
 C        -1.164132         2.300785         1.011965
 H         1.135093         1.288604         0.534293
 H        -1.631771        -1.080938         0.572594
 H        -2.179361        -0.301790         1.950276
 H        -3.718652         0.403912        -0.272522
 H        -1.425520         0.238409        -1.533924
 H        -2.295297         4.070877        -0.541839
 H        -3.543634         3.055844        -1.245665
 H        -3.375505         2.803246         1.114222
 H        -0.558177         3.119429         0.779296
 H        -1.277377         2.208513         2.173282
