19
Iteration:  3897
 O         0.602447         0.538066         0.658183
 C        -0.740433         1.061013         0.469016
 C        -1.853225        -0.029331         0.943737
 C        -2.730894         0.817591        -0.001807
 C        -1.503696         1.065733        -0.846667
 O        -1.662534         2.308462        -1.500340
 C        -2.622457         3.069908        -0.774190
 C        -2.769590         2.243813         0.580417
 C        -1.216238         2.335907         1.106107
 H         1.137337         1.327625         0.322105
 H        -1.476187        -0.937753         0.545232
 H        -1.972401         0.043853         2.027898
 H        -3.773971         0.545225        -0.335013
 H        -1.566509         0.294951        -1.595584
 H        -2.230128         4.083437        -0.770796
 H        -3.646921         3.205535        -1.232553
 H        -3.542842         2.645294         1.172510
 H        -0.694238         3.131788         0.732751
 H        -0.851980         2.150438         2.167250
