19
Iteration:  2717charge 0 multiplicity 1
 O         0.575147         0.646765         0.667989
 C        -0.779003         0.955778         0.483931
 C        -1.787391        -0.087545         0.972278
 C        -2.734207         0.807444         0.108800
 C        -1.530913         1.013384        -0.896393
 O        -1.657867         2.334852        -1.655760
 C        -2.635630         3.119367        -0.812835
 C        -2.714461         2.347368         0.590702
 C        -1.207640         2.261446         1.135501
 H         1.022601         1.469378         0.801379
 H        -1.561179        -1.128051         0.634070
 H        -2.005233        -0.075711         2.157666
 H        -3.671358         0.500832        -0.293003
 H        -1.613782         0.279106        -1.667978
 H        -2.372437         4.187687        -0.457162
 H        -3.608866         3.020301        -1.348301
 H        -3.405170         2.557578         1.414418
 H        -0.573629         3.107183         0.677683
 H        -1.033029         2.184081         2.170805
