19
Iteration:  4462charge 0 multiplicity 1
 O         0.590365         0.573231         0.645797
 C        -0.758617         0.948110         0.472685
 C        -1.826742         0.042010         0.936293
 C        -2.721594         0.885101         0.042130
 C        -1.470397         1.041219        -0.872862
 O        -1.662600         2.341379        -1.490414
 C        -2.619697         3.033372        -0.802474
 C        -2.707525         2.348630         0.572182
 C        -1.281143         2.287905         1.115468
 H         1.218142         1.172928         0.154689
 H        -1.834645        -0.983622         0.514204
 H        -2.092347        -0.052823         1.992730
 H        -3.681165         0.389262        -0.372088
 H        -1.259126         0.193649        -1.620885
 H        -2.294880         4.044144        -0.712523
 H        -3.693700         2.727092        -1.074321
 H        -3.538328         2.483543         1.243423
 H        -0.661308         3.085866         0.868521
 H        -1.193206         2.090902         2.236292
