19
Iteration:  2000charge 0 multiplicity 1
 O         0.611624         0.693521         0.476644
 C        -0.762782         1.002451         0.444706
 C        -1.846963        -0.024702         0.965555
 C        -2.812871         0.799220         0.034464
 C        -1.532841         0.983623        -0.874709
 O        -1.611650         2.288540        -1.503081
 C        -2.525069         2.983347        -0.703964
 C        -2.738098         2.339318         0.578272
 C        -1.292056         2.337823         1.194650
 H         1.125232         1.533681         0.483352
 H        -1.807390        -1.031105         0.537425
 H        -2.026850        -0.201184         2.080830
 H        -3.800518         0.362875        -0.185599
 H        -0.993591         0.213034        -1.481607
 H        -2.153447         4.092566        -0.699664
 H        -3.400931         3.048293        -1.198172
 H        -3.458799         2.710333         1.223432
 H        -0.872327         3.272139         0.911464
 H        -1.299046         2.048977         2.352792
