19
Iteration:   932
 O         0.584065         0.741521         0.438062
 C        -0.773003         0.995545         0.508861
 C        -1.850567        -0.045390         0.999795
 C        -2.729735         0.807426         0.069691
 C        -1.506257         1.034302        -0.857769
 O        -1.702903         2.256022        -1.640998
 C        -2.450274         3.111311        -0.750096
 C        -2.694029         2.326292         0.490596
 C        -1.345957         2.203748         1.353507
 H         0.889066         0.859050         1.377609
 H        -1.634744        -1.047615         0.650044
 H        -2.203135        -0.030479         1.973976
 H        -3.619360         0.280273        -0.314686
 H        -1.191478         0.326846        -1.636930
 H        -1.814255         4.012115        -0.632143
 H        -3.455918         3.359428        -1.246564
 H        -3.467771         2.793741         1.017828
 H        -0.720148         3.091380         1.099748
 H        -1.500789         2.014291         2.444384
