19
Iteration:  2168
 O         0.669390         0.685025         0.697832
 C        -0.757116         0.976933         0.418897
 C        -1.795597         0.001960         0.954194
 C        -2.758705         0.847652         0.036717
 C        -1.547736         1.051447        -0.878003
 O        -1.805421         2.209420        -1.653461
 C        -2.517174         3.064234        -0.695053
 C        -2.657700         2.315206         0.559042
 C        -1.305636         2.255200         1.160534
 H         1.253236         1.359092         0.300126
 H        -1.559525        -1.037889         0.569657
 H        -2.033379        -0.022013         2.024374
 H        -3.836958         0.692427        -0.180151
 H        -1.348519         0.247886        -1.577849
 H        -1.974865         4.100560        -0.628411
 H        -3.442714         3.217015        -1.130712
 H        -3.474114         2.572801         1.338461
 H        -0.758641         3.227321         0.944004
 H        -1.391175         1.992221         2.225603
