19
Iteration:  1766
 O         0.652446         0.624761         0.634724
 C        -0.697571         0.982829         0.561251
 C        -1.801733         0.034679         0.846951
 C        -2.779017         0.821312         0.009725
 C        -1.553128         1.038250        -0.906058
 O        -1.735311         2.300730        -1.579629
 C        -2.617932         3.036989        -0.745255
 C        -2.689816         2.287099         0.618520
 C        -1.211695         2.340681         1.135364
 H         0.820127         0.433060         1.580545
 H        -1.645858        -1.003226         0.371781
 H        -2.074153        -0.012058         1.902766
 H        -3.763277         0.419850        -0.386419
 H        -1.450805         0.265799        -1.677361
 H        -2.164708         4.068692        -0.625602
 H        -3.702682         3.158857        -1.289256
 H        -3.456264         2.642390         1.413214
 H        -0.768634         3.110234         0.611160
 H        -1.070532         2.424990         2.240995
