19
Iteration:  2055charge 0 multiplicity 1
 O         0.579788         0.606547         0.739096
 C        -0.686309         1.070540         0.484848
 C        -1.792130         0.051547         0.850328
 C        -2.769812         0.794582        -0.015009
 C        -1.613026         1.033679        -0.898455
 O        -1.773669         2.272621        -1.572932
 C        -2.631711         3.025104        -0.736947
 C        -2.571984         2.263188         0.570935
 C        -1.203378         2.317404         1.158651
 H         1.152889         1.300371         0.432003
 H        -1.581662        -0.911203         0.355252
 H        -2.051228        -0.202128         1.887984
 H        -3.718745         0.419676        -0.375860
 H        -1.378540         0.117425        -1.491996
 H        -2.152832         4.026843        -0.510931
 H        -3.582244         3.219836        -1.137784
 H        -3.190177         2.604622         1.356798
 H        -0.696710         3.217762         0.766556
 H        -1.298914         2.281416         2.361625
