19
Iteration:  4850charge 0 multiplicity 1
 O         0.613847         0.625186         0.583343
 C        -0.778733         0.961366         0.506620
 C        -1.843524        -0.048238         0.938039
 C        -2.800476         0.825127         0.061770
 C        -1.564824         1.071498        -0.827803
 O        -1.610700         2.299938        -1.524750
 C        -2.517308         3.049113        -0.757730
 C        -2.742911         2.369784         0.482956
 C        -1.246427         2.265081         1.145285
 H         1.031203         1.373541         0.071016
 H        -1.661627        -1.155379         0.727002
 H        -2.114245        -0.126741         2.005645
 H        -3.764736         0.368992        -0.207576
 H        -1.529063         0.314557        -1.656678
 H        -2.121609         4.021172        -0.458094
 H        -3.485613         3.056647        -1.238136
 H        -3.488007         2.839996         1.237776
 H        -0.647705         3.193051         0.952443
 H        -1.152993         2.201852         2.311646
