19
Iteration:  1164charge 0 multiplicity 1
 O         0.614464         0.633186         0.741724
 C        -0.756791         0.985990         0.499461
 C        -1.850313        -0.042685         0.995747
 C        -2.740139         0.850422         0.030548
 C        -1.539053         1.102691        -0.926371
 O        -1.600264         2.395899        -1.424555
 C        -2.723136         3.043459        -0.807157
 C        -2.649542         2.285974         0.509590
 C        -1.230792         2.239394         1.042017
 H         0.817590         0.080862         0.000356
 H        -1.846699        -1.084335         0.448424
 H        -2.007514        -0.050420         2.047964
 H        -3.652484         0.469279        -0.427769
 H        -1.196897         0.346252        -1.685349
 H        -2.430720         4.113169        -0.771076
 H        -3.668998         2.934482        -1.322132
 H        -3.540091         2.650453         1.133488
 H        -0.562836         2.975059         0.535709
 H        -1.074055         2.342125         2.127332
