19
Iteration:  1420
 O         0.672938         0.665684         0.586011
 C        -0.773049         1.045857         0.578755
 C        -1.938494        -0.004444         0.946273
 C        -2.793870         0.785054         0.007945
 C        -1.499071         1.072288        -0.867682
 O        -1.585858         2.277064        -1.544114
 C        -2.591714         3.064884        -0.745288
 C        -2.747934         2.263914         0.516355
 C        -1.240013         2.299058         1.199571
 H         0.833549         0.630815        -0.348852
 H        -1.942070        -0.999191         0.530432
 H        -2.110375         0.164538         2.125318
 H        -3.781766         0.474155        -0.468643
 H        -1.279817         0.216581        -1.495538
 H        -2.093339         4.020888        -0.610109
 H        -3.487985         3.126759        -1.362241
 H        -3.492551         2.481980         1.278131
 H        -0.594646         3.196569         1.058771
 H        -1.245934         2.103038         2.268578
