19
Iteration:  1488
 O         0.570667         0.609265         0.662341
 C        -0.740838         0.931703         0.488428
 C        -1.867233        -0.009514         0.917894
 C        -2.727381         0.861176        -0.032266
 C        -1.519681         1.071110        -0.889771
 O        -1.677772         2.251466        -1.603544
 C        -2.624816         3.057896        -0.703717
 C        -2.649386         2.327113         0.613495
 C        -1.227963         2.339406         1.121327
 H         1.180264         1.242775         1.050370
 H        -1.733763        -1.001201         0.431235
 H        -2.076081         0.038853         2.085328
 H        -3.660889         0.440434        -0.354991
 H        -1.103482         0.338953        -1.634966
 H        -2.228094         4.044383        -0.651557
 H        -3.616148         2.931001        -1.121304
 H        -3.535432         2.571266         1.176049
 H        -0.660486         3.224908         0.916549
 H        -1.381551         2.263677         2.247185
