19
Iteration:  4403charge 0 multiplicity 1
 O         0.624643         0.679492         0.616337
 C        -0.762380         0.978374         0.461127
 C        -1.846307        -0.074443         0.909722
 C        -2.817283         0.849457         0.081669
 C        -1.565389         1.001960        -0.839636
 O        -1.610875         2.272394        -1.585967
 C        -2.554443         3.098159        -0.744438
 C        -2.721878         2.301362         0.555269
 C        -1.254199         2.314854         1.159807
 H         1.072036         1.487861         0.364231
 H        -1.612934        -1.045273         0.495831
 H        -2.191765        -0.031366         1.946326
 H        -3.709397         0.399306        -0.263499
 H        -1.458133         0.146879        -1.432877
 H        -2.104045         4.129731        -0.720000
 H        -3.434772         3.315737        -1.277631
 H        -3.461333         2.408682         1.415251
 H        -0.511182         3.164166         1.152591
 H        -1.361649         1.973248         2.103095
