19
Iteration:  4510
 O         0.597851         0.605468         0.640613
 C        -0.742400         0.949662         0.492290
 C        -1.838062        -0.044976         0.943582
 C        -2.749566         0.864806         0.002043
 C        -1.562704         1.112541        -0.876388
 O        -1.658998         2.280058        -1.528949
 C        -2.631202         3.088819        -0.766451
 C        -2.720738         2.295664         0.549165
 C        -1.209774         2.238407         1.117019
 H         1.104471         1.394806         0.777244
 H        -1.490181        -1.064552         0.758029
 H        -2.068014         0.077022         2.036723
 H        -3.575636         0.534663        -0.542355
 H        -1.425386         0.217899        -1.510596
 H        -2.077761         4.023875        -0.572156
 H        -3.593201         3.159138        -1.279098
 H        -3.293383         2.752360         1.344111
 H        -0.770958         3.171136         0.705756
 H        -1.197518         2.316496         2.232104
