19
Iteration:   328charge 0 multiplicity 1
 O         0.589856         0.634275         0.591561
 C        -0.773800         0.933737         0.521388
 C        -1.830052        -0.025957         0.979310
 C        -2.787249         0.839220         0.083843
 C        -1.505692         1.086237        -0.881717
 O        -1.684276         2.293767        -1.522343
 C        -2.602541         3.060241        -0.798130
 C        -2.644270         2.348453         0.494546
 C        -1.235388         2.300940         1.107245
 H         1.022959         1.126700         1.283156
 H        -1.782296        -1.054325         0.590656
 H        -1.859195        -0.271526         2.116309
 H        -3.673239         0.306012        -0.353775
 H        -1.228498         0.218472        -1.561988
 H        -2.236239         4.047291        -0.702731
 H        -3.553446         3.080494        -1.325665
 H        -3.447459         2.713690         1.065397
 H        -0.687686         3.145203         0.780463
 H        -1.313443         2.143793         2.192807
