19
Iteration:  1973
 O         0.601128         0.669791         0.500240
 C        -0.794824         0.974069         0.555465
 C        -1.799737        -0.044079         1.031533
 C        -2.771490         0.788216         0.043840
 C        -1.583251         1.070974        -0.802010
 O        -1.552006         2.377208        -1.492010
 C        -2.645920         3.064608        -0.780995
 C        -2.739435         2.300518         0.499298
 C        -1.206823         2.225746         1.146552
 H         1.049264         1.315057        -0.102033
 H        -1.612702        -1.060494         0.559691
 H        -2.166608        -0.225436         2.052226
 H        -3.743343         0.298519        -0.178473
 H        -1.244889         0.277694        -1.485180
 H        -2.361504         4.077832        -0.764237
 H        -3.542969         2.868789        -1.525695
 H        -3.597269         2.623300         1.213258
 H        -0.652913         3.172561         0.737902
 H        -1.227856         2.159914         2.314579
