19
Iteration:  1938charge 0 multiplicity 1
 O         0.627982         0.597628         0.715938
 C        -0.680476         1.009350         0.460498
 C        -1.805400         0.046380         0.941343
 C        -2.723600         0.870265        -0.033968
 C        -1.606477         1.082894        -0.893484
 O        -1.654827         2.304856        -1.562100
 C        -2.662854         3.019865        -0.716090
 C        -2.730041         2.257272         0.613196
 C        -1.215620         2.291148         1.124653
 H         1.220345         0.751197        -0.054426
 H        -1.693105        -0.926552         0.334303
 H        -2.199378        -0.092812         1.916433
 H        -3.665771         0.425974        -0.243858
 H        -1.322982         0.229815        -1.555326
 H        -2.450406         4.104377        -0.591674
 H        -3.752997         2.978193        -1.259797
 H        -3.626709         2.500899         1.262818
 H        -0.689590         3.277731         0.866987
 H        -1.108676         2.203906         2.189131
