19
Iteration:  3194charge 0 multiplicity 1
 O         0.636129         0.698366         0.514910
 C        -0.753044         0.933205         0.449117
 C        -1.842298        -0.093066         1.012770
 C        -2.773979         0.740855         0.054232
 C        -1.529779         1.027953        -0.846879
 O        -1.639151         2.300928        -1.527963
 C        -2.595366         3.238485        -0.777714
 C        -2.746011         2.322124         0.610677
 C        -1.282027         2.247150         1.183935
 H         1.121196         1.418139         0.173836
 H        -1.707710        -1.025101         0.586490
 H        -1.760253        -0.259238         2.111914
 H        -3.781095         0.479881        -0.298167
 H        -1.237772         0.202843        -1.655448
 H        -2.107295         4.143898        -0.690409
 H        -3.486329         3.142366        -1.516043
 H        -3.697398         2.428114         1.254465
 H        -0.716696         3.126365         0.935399
 H        -1.125868         2.170906         2.347759
