19
Iteration:  1143charge 0 multiplicity 1
 O         0.637179         0.533466         0.712102
 C        -0.667917         0.945861         0.474043
 C        -1.856528        -0.000918         0.924255
 C        -2.735630         0.797638         0.028329
 C        -1.509372         1.013875        -0.857807
 O        -1.573549         2.413541        -1.533135
 C        -2.713467         3.048571        -0.780278
 C        -2.771343         2.278714         0.585550
 C        -1.251748         2.461129         1.102961
 H         0.922916        -0.195604         0.080103
 H        -1.786570        -1.106781         0.538475
 H        -2.129577         0.148497         1.942958
 H        -3.647253         0.504691        -0.482202
 H        -1.237714         0.430646        -1.759234
 H        -2.676377         4.159099        -0.662344
 H        -3.736671         2.854364        -1.349368
 H        -3.632386         2.601088         1.327413
 H        -0.572867         3.357042         0.780466
 H        -1.257300         2.377921         2.276978
