19
Iteration:  4299charge 0 multiplicity 1
 O         0.632645         0.635877         0.627737
 C        -0.717640         0.957232         0.512820
 C        -1.882828         0.007264         0.895592
 C        -2.771489         0.844983         0.010374
 C        -1.594366         1.012894        -0.920008
 O        -1.595785         2.299555        -1.527967
 C        -2.668106         3.020262        -0.749881
 C        -2.663823         2.330652         0.586257
 C        -1.271752         2.337418         1.191586
 H         1.051836         1.150784        -0.060785
 H        -1.844569        -1.038563         0.558384
 H        -2.134433        -0.072027         1.981557
 H        -3.767061         0.444010        -0.225690
 H        -1.033770         0.309714        -1.560989
 H        -2.284419         3.996320        -0.538890
 H        -3.459359         2.946364        -1.359261
 H        -3.362164         2.633962         1.284836
 H        -0.713436         3.235131         0.987472
 H        -1.018890         2.116102         2.291671
