19
Iteration:  4331charge 0 multiplicity 1
 O         0.560760         0.532691         0.631892
 C        -0.708911         0.940086         0.490859
 C        -1.837204        -0.049568         0.997928
 C        -2.679331         0.779171         0.061311
 C        -1.520000         1.050880        -0.893334
 O        -1.628673         2.381125        -1.534813
 C        -2.694845         3.089290        -0.762337
 C        -2.696513         2.321672         0.554426
 C        -1.272843         2.357920         1.055890
 H         1.142862         1.253912         0.290821
 H        -1.730995        -1.023208         0.539907
 H        -1.982285        -0.021218         2.079074
 H        -3.692088         0.433075        -0.239016
 H        -1.068913         0.286555        -1.533380
 H        -2.431704         4.102426        -0.492256
 H        -3.638031         3.158865        -1.346572
 H        -3.411578         2.635035         1.244641
 H        -0.798655         3.304980         0.835827
 H        -1.202589         2.187751         2.284090
