19
Iteration:  1261charge 0 multiplicity 1
 O         0.636586         0.800342         0.686227
 C        -0.733206         1.026100         0.490078
 C        -1.917047        -0.047882         0.932528
 C        -2.775330         0.822857         0.010364
 C        -1.567572         1.009683        -0.888166
 O        -1.662334         2.249064        -1.578001
 C        -2.532858         3.091060        -0.732604
 C        -2.709310         2.356909         0.576737
 C        -1.234061         2.187144         1.185066
 H         0.882549         0.167876         0.025657
 H        -1.771747        -1.073897         0.430977
 H        -2.220925        -0.181683         1.930745
 H        -3.699834         0.631980        -0.549178
 H        -1.176948         0.183240        -1.592990
 H        -2.099976         4.142323        -0.636877
 H        -3.380440         3.144345        -1.466878
 H        -3.438628         2.551988         1.408288
 H        -0.639516         3.002664         0.918711
 H        -1.226004         2.116412         2.192419
