19
Iteration:  2417
 O         0.611110         0.631684         0.635483
 C        -0.749248         1.013425         0.488034
 C        -1.832683         0.002370         0.969933
 C        -2.728549         0.829508         0.092541
 C        -1.548638         0.939101        -0.958722
 O        -1.722862         2.314955        -1.584676
 C        -2.603756         3.075345        -0.751356
 C        -2.629963         2.265361         0.564067
 C        -1.273353         2.366863         1.158738
 H         1.089171         1.332193         0.201618
 H        -1.723107        -1.047856         0.393068
 H        -2.017117        -0.222354         2.035790
 H        -3.707306         0.400926        -0.140125
 H        -1.044553         0.171807        -1.592099
 H        -2.124670         4.038203        -0.580222
 H        -3.593697         3.150264        -1.146596
 H        -3.407600         2.324805         1.283360
 H        -0.814659         3.283904         0.928033
 H        -1.292431         2.335243         2.317813
