19
Iteration:  1406charge 0 multiplicity 1
 O         0.625830         0.742637         0.583015
 C        -0.743825         0.908916         0.511018
 C        -1.910850        -0.054749         1.015550
 C        -2.745309         0.833631         0.016749
 C        -1.513052         0.986788        -0.851491
 O        -1.675059         2.287860        -1.572191
 C        -2.503430         3.134930        -0.767951
 C        -2.631915         2.319611         0.518346
 C        -1.356321         2.266760         1.252928
 H         1.026132         0.443751        -0.291213
 H        -1.603605        -1.016634         0.627012
 H        -2.267376        -0.260885         1.965131
 H        -3.653288         0.400003        -0.392777
 H        -1.180009         0.295752        -1.578826
 H        -2.130626         4.182548        -0.551679
 H        -3.539206         3.338860        -1.245800
 H        -3.538468         2.743437         1.028184
 H        -0.803797         3.158804         0.943374
 H        -1.479279         2.295342         2.259988
