19
Iteration:  1230charge 0 multiplicity 1
 O         0.598649         0.856280         0.570450
 C        -0.780245         1.023713         0.507877
 C        -1.816467        -0.099819         0.998011
 C        -2.739467         0.758555         0.069351
 C        -1.617890         0.995655        -0.913617
 O        -1.663091         2.252126        -1.692104
 C        -2.375396         3.165038        -0.739414
 C        -2.725073         2.333568         0.539839
 C        -1.367582         2.192807         1.306600
 H         0.642677        -0.143319         0.418793
 H        -1.658320        -1.133509         0.404183
 H        -2.083274        -0.178746         2.074652
 H        -3.717567         0.540401        -0.329425
 H        -1.219101         0.255958        -1.662660
 H        -1.691132         4.028841        -0.491293
 H        -3.250752         3.499543        -1.269904
 H        -3.570782         2.656175         1.283302
 H        -0.731817         3.082885         1.177546
 H        -1.440400         2.050313         2.385268
