19
Iteration:  3556
 O         0.685897         0.531432         0.638079
 C        -0.716651         1.059347         0.434395
 C        -1.891664        -0.020218         0.925621
 C        -2.753401         0.792032         0.021968
 C        -1.541474         1.077378        -0.888577
 O        -1.668738         2.311396        -1.525409
 C        -2.650720         3.057813        -0.692549
 C        -2.737486         2.263328         0.575691
 C        -1.218824         2.347603         1.104680
 H         1.316006         1.235705         0.565362
 H        -1.741285        -1.083760         0.837501
 H        -2.084930         0.086835         1.948833
 H        -3.708446         0.517782        -0.520023
 H        -1.325210         0.295520        -1.635664
 H        -2.336314         4.074768        -0.671695
 H        -3.704142         3.088707        -1.261446
 H        -3.301635         2.617759         1.416379
 H        -0.818271         3.223135         0.788752
 H        -1.261719         2.341954         2.227829
