19
Iteration:  2135
 O         0.575773         0.702032         0.513523
 C        -0.799043         0.984893         0.526339
 C        -1.804659        -0.064435         1.019406
 C        -2.803233         0.813363         0.089028
 C        -1.562469         1.059566        -0.821400
 O        -1.599431         2.304680        -1.565479
 C        -2.559203         3.054073        -0.800631
 C        -2.672908         2.262986         0.532713
 C        -1.254481         2.259272         1.154216
 H         0.953985         1.526629         0.236760
 H        -1.500419        -1.062049         0.509773
 H        -2.045696        -0.227734         2.063502
 H        -3.895458         0.702111        -0.102661
 H        -1.245763         0.201894        -1.420856
 H        -2.334729         4.171005        -0.628460
 H        -3.448514         3.036702        -1.383658
 H        -3.577423         2.492037         1.236788
 H        -0.590335         3.150185         0.933577
 H        -1.279821         2.279590         2.261281
