19
Iteration:  1321
 O         0.621206         0.597639         0.616344
 C        -0.733998         1.019129         0.489061
 C        -1.861091        -0.013339         0.985770
 C        -2.735819         0.830686         0.008166
 C        -1.513925         1.088154        -0.974417
 O        -1.590228         2.350181        -1.484225
 C        -2.676207         3.027989        -0.772498
 C        -2.686370         2.278877         0.565502
 C        -1.270586         2.359727         1.153627
 H         0.650497        -0.365944         0.645301
 H        -1.736404        -1.061642         0.647816
 H        -2.134532        -0.016643         2.169027
 H        -3.646017         0.416457        -0.482286
 H        -1.225176         0.327316        -1.639908
 H        -2.449594         4.033030        -0.478648
 H        -3.536575         2.943599        -1.388838
 H        -3.514974         2.565197         1.204843
 H        -0.640076         3.219761         0.703489
 H        -1.336433         2.504575         2.316372
