19
Iteration:  4963charge 0 multiplicity 1
 O         0.607894         0.586734         0.701750
 C        -0.758950         0.951489         0.503934
 C        -1.838592        -0.081459         0.930905
 C        -2.735351         0.866397         0.001318
 C        -1.579990         1.018925        -0.909968
 O        -1.688894         2.357850        -1.571225
 C        -2.620709         3.063277        -0.756093
 C        -2.662380         2.342879         0.580570
 C        -1.223553         2.264744         1.145011
 H         1.203686         1.358090         0.508460
 H        -1.842401        -1.038514         0.585212
 H        -1.896397        -0.156464         2.017913
 H        -3.703809         0.484360        -0.406428
 H        -1.439082         0.354381        -1.741299
 H        -2.121861         4.065484        -0.610837
 H        -3.567318         3.115583        -1.310118
 H        -3.372196         2.794914         1.272970
 H        -0.652589         3.197572         0.779826
 H        -1.096590         2.407474         2.144563
