19
Iteration:  1329
 O         0.656421         0.643401         0.600509
 C        -0.787636         0.979768         0.553189
 C        -1.867560        -0.023169         0.993054
 C        -2.722875         0.846026         0.005467
 C        -1.503849         1.073645        -0.891877
 O        -1.649250         2.380897        -1.524111
 C        -2.607188         3.069157        -0.776037
 C        -2.720652         2.241767         0.526741
 C        -1.251529         2.299049         1.107695
 H         0.527559        -0.314122         0.765799
 H        -1.636291        -1.025009         0.553177
 H        -2.212186         0.030635         2.038194
 H        -3.675345         0.415076        -0.186705
 H        -1.052194         0.391722        -1.596335
 H        -2.313310         4.151862        -0.652050
 H        -3.620165         2.950078        -1.258712
 H        -3.522425         2.661079         1.207010
 H        -0.570729         3.087453         0.842514
 H        -1.315374         2.253944         2.117777
