19
Iteration:   532charge 0 multiplicity 1
 O         0.562271         0.454387         0.817954
 C        -0.725180         0.995905         0.453862
 C        -1.716389        -0.008839         0.949249
 C        -2.713168         0.771295         0.026481
 C        -1.537845         1.101867        -0.934723
 O        -1.690009         2.351592        -1.573464
 C        -2.775221         3.078920        -0.745604
 C        -2.689318         2.340545         0.510345
 C        -1.181822         2.342536         1.071262
 H         1.263505         1.018725         0.444167
 H        -1.629523        -1.094134         0.600451
 H        -1.952387         0.036027         2.001571
 H        -3.705909         0.452424        -0.263132
 H        -1.106261         0.413450        -1.633657
 H        -2.540039         4.178333        -0.798056
 H        -3.752274         2.981936        -1.229069
 H        -3.380143         2.812642         1.359930
 H        -0.631173         3.297002         0.766109
 H        -1.272670         2.351312         2.146769
