19
Iteration:  3320
 O         0.748831         0.661889         0.550011
 C        -0.738611         0.945996         0.517477
 C        -1.869661        -0.104304         0.918579
 C        -2.812499         0.832135         0.065052
 C        -1.583532         1.068509        -0.852683
 O        -1.646462         2.343532        -1.542749
 C        -2.582765         2.995782        -0.751869
 C        -2.770223         2.299362         0.610395
 C        -1.231965         2.343905         1.198708
 H         1.116085         1.438337         0.063119
 H        -1.769987        -1.174792         0.435832
 H        -2.128674        -0.095241         1.996785
 H        -3.599877         0.326475        -0.487891
 H        -1.642288         0.285561        -1.547506
 H        -2.368444         4.177393        -0.673087
 H        -3.572821         3.058762        -1.313149
 H        -3.586382         2.608465         1.249021
 H        -0.639469         3.163304         0.734027
 H        -1.184867         2.363555         2.237551
