19
Iteration:   686charge 0 multiplicity 1
 O         0.618721         0.458225         0.853020
 C        -0.663407         1.000409         0.564020
 C        -1.824404         0.002487         0.860310
 C        -2.775525         0.852206        -0.020862
 C        -1.594220         1.048937        -0.939358
 O        -1.702191         2.330835        -1.596551
 C        -2.737560         3.019338        -0.741871
 C        -2.609201         2.302288         0.599739
 C        -1.185514         2.422383         1.050997
 H         1.287961         1.115045         0.523697
 H        -1.578455        -0.770354         0.148378
 H        -1.988935        -0.310191         1.918763
 H        -3.738396         0.448198        -0.428119
 H        -1.340962         0.391948        -1.844234
 H        -2.492522         4.114972        -0.673448
 H        -3.778335         2.873204        -1.045946
 H        -3.370659         2.735264         1.447590
 H        -0.715464         3.278262         0.542524
 H        -1.087430         2.532263         2.114031
