19
Iteration:   736
 O         0.633467         0.667832         0.499612
 C        -0.770364         1.006126         0.441316
 C        -1.894553        -0.008821         0.979871
 C        -2.758882         0.812191         0.078520
 C        -1.587070         1.010189        -0.916821
 O        -1.561163         2.267924        -1.520547
 C        -2.501518         3.050205        -0.758584
 C        -2.713443         2.299040         0.566229
 C        -1.347033         2.261771         1.234172
 H         1.117362         1.532918         0.537520
 H        -1.681494        -1.141634         0.898062
 H        -2.278304         0.283117         1.938850
 H        -3.730432         0.495629        -0.232011
 H        -1.232351         0.318080        -1.650553
 H        -2.117692         4.037510        -0.536382
 H        -3.489092         3.207861        -1.272628
 H        -3.629835         2.618246         0.983439
 H        -0.805546         3.236552         1.078826
 H        -1.247442         2.081708         2.361825
