19
Iteration:  3700
 O         0.532677         0.599614         0.656357
 C        -0.774519         0.964154         0.543598
 C        -1.773263        -0.067428         0.952306
 C        -2.643009         0.830293         0.066980
 C        -1.592262         1.056958        -0.960069
 O        -1.678836         2.352454        -1.540595
 C        -2.674716         3.089541        -0.816590
 C        -2.630555         2.294908         0.549393
 C        -1.196271         2.310956         1.163700
 H         1.006293         1.364726         0.273871
 H        -1.698418        -1.137848         0.751909
 H        -2.001866        -0.020601         2.002928
 H        -3.759737         0.556807        -0.200097
 H        -1.350900         0.173674        -1.536756
 H        -2.331723         4.100078        -0.760672
 H        -3.621996         2.896715        -1.338992
 H        -3.513471         2.529778         1.095689
 H        -0.629252         3.142379         0.806196
 H        -1.161022         2.225270         2.337132
