19
Iteration:  2929
 O         0.643788         0.685220         0.493101
 C        -0.773662         0.960881         0.462778
 C        -1.873069        -0.036506         0.961793
 C        -2.739552         0.805057         0.083656
 C        -1.561287         1.048803        -0.916501
 O        -1.641592         2.350959        -1.466711
 C        -2.595703         3.014754        -0.754044
 C        -2.712898         2.291551         0.547482
 C        -1.221332         2.269662         1.186489
 H         1.077852         1.286507         1.076113
 H        -1.787099        -1.028380         0.471379
 H        -2.045825        -0.078356         1.989361
 H        -3.728855         0.410464        -0.211448
 H        -1.325612         0.346960        -1.767518
 H        -2.231385         3.992605        -0.680081
 H        -3.512865         3.130613        -1.373174
 H        -3.525779         2.688453         1.256800
 H        -0.669519         3.114997         0.964601
 H        -1.369201         2.123642         2.261868
