19
Iteration:  4539
 O         0.570330         0.627005         0.596418
 C        -0.748239         0.964137         0.515885
 C        -1.873476        -0.043001         0.971626
 C        -2.714463         0.855542         0.089367
 C        -1.513751         1.080256        -0.957908
 O        -1.687934         2.274564        -1.590675
 C        -2.519118         3.045261        -0.755593
 C        -2.646804         2.322001         0.541205
 C        -1.301210         2.249183         1.214009
 H         1.051424         1.473256         0.420802
 H        -1.537443        -0.976087         0.479271
 H        -2.121647         0.076175         2.042440
 H        -3.740306         0.389530        -0.274112
 H        -1.320196         0.189309        -1.686851
 H        -2.227168         4.078281        -0.663391
 H        -3.587792         3.323209        -1.240444
 H        -3.345667         2.830609         1.230277
 H        -0.838050         3.208723         1.091429
 H        -1.461664         2.111095         2.356906
