19
Iteration:  1929
 O         0.636337         0.583741         0.748132
 C        -0.700418         1.052985         0.525995
 C        -1.816442         0.083583         0.851792
 C        -2.831589         0.786392         0.016592
 C        -1.565159         1.017073        -0.884998
 O        -1.726439         2.335316        -1.570963
 C        -2.643146         3.065037        -0.778923
 C        -2.680768         2.235482         0.601667
 C        -1.201424         2.295258         1.149485
 H         1.147853         0.871516        -0.048430
 H        -1.510101        -0.921355         0.370967
 H        -1.913167        -0.149234         1.905003
 H        -3.686787         0.442107        -0.574880
 H        -1.162960         0.326813        -1.634890
 H        -2.315358         4.048022        -0.565581
 H        -3.689855         3.085478        -1.156703
 H        -3.432167         2.584241         1.412457
 H        -0.551338         3.161212         0.648310
 H        -0.998794         2.233797         2.311244
