19
Iteration:  1733
 O         0.598461         0.715575         0.484682
 C        -0.789371         0.898601         0.511649
 C        -1.809287        -0.041597         0.971614
 C        -2.730366         0.808951         0.041707
 C        -1.539295         0.989620        -0.884720
 O        -1.615224         2.345907        -1.497781
 C        -2.629593         3.064814        -0.819229
 C        -2.640654         2.347046         0.561334
 C        -1.282896         2.283748         1.188796
 H         1.152110         0.866640         1.301923
 H        -1.866540        -1.150167         0.704075
 H        -2.111432        -0.009640         2.004642
 H        -3.741155         0.500361        -0.313678
 H        -1.477723         0.228899        -1.664830
 H        -2.312516         4.127855        -0.656111
 H        -3.703487         3.080096        -1.373847
 H        -3.435265         2.624329         1.351105
 H        -0.662188         3.080000         0.974093
 H        -1.326924         2.273477         2.293338
