19
Iteration:  2740charge 0 multiplicity 1
 O         0.642036         0.683539         0.583196
 C        -0.769812         1.003333         0.480371
 C        -1.814042         0.033938         0.895137
 C        -2.848190         0.819537         0.041850
 C        -1.585605         1.005236        -0.886632
 O        -1.663943         2.233585        -1.480877
 C        -2.528552         3.002035        -0.740233
 C        -2.636831         2.311500         0.531568
 C        -1.278229         2.295597         1.174359
 H         1.149334         1.552480         0.464377
 H        -1.727802        -0.982875         0.524222
 H        -2.006395        -0.026767         2.066263
 H        -3.872158         0.617107        -0.270817
 H        -1.283782         0.231986        -1.667345
 H        -2.163717         4.088935        -0.581535
 H        -3.509210         2.932053        -1.246653
 H        -3.450660         2.643858         1.255708
 H        -0.637315         3.205465         0.919237
 H        -1.427523         2.221203         2.215671
