19
Iteration:  3527charge 0 multiplicity 1
 O         0.556619         0.664418         0.551954
 C        -0.788699         0.972844         0.537942
 C        -1.802854        -0.155328         0.985173
 C        -2.723047         0.796972         0.073387
 C        -1.541474         1.058959        -0.905267
 O        -1.660425         2.305436        -1.598243
 C        -2.600435         3.126928        -0.748449
 C        -2.697979         2.358592         0.550552
 C        -1.242066         2.250923         1.200393
 H         1.013824         1.545650         0.532159
 H        -1.611295        -1.196044         0.530718
 H        -1.962150        -0.054964         2.110198
 H        -3.668838         0.335354        -0.329520
 H        -1.219186         0.303681        -1.565265
 H        -2.228430         4.173476        -0.772181
 H        -3.580576         3.127687        -1.148960
 H        -3.336901         2.780468         1.305245
 H        -0.488177         3.067561         0.762492
 H        -1.318555         2.293856         2.261995
