19
Iteration:  2163
 O         0.680998         0.690211         0.680033
 C        -0.710179         0.955548         0.439266
 C        -1.800333        -0.007173         0.917945
 C        -2.765797         0.807702         0.037324
 C        -1.554332         1.014559        -0.877648
 O        -1.805732         2.223127        -1.615806
 C        -2.474049         3.077180        -0.709878
 C        -2.688497         2.362276         0.608910
 C        -1.322990         2.275040         1.133125
 H         1.189020         1.403460         0.273859
 H        -1.707382        -1.029876         0.590632
 H        -2.048531         0.076531         1.990422
 H        -3.776196         0.557779        -0.264070
 H        -1.375079         0.140005        -1.542649
 H        -2.141177         4.079513        -0.696196
 H        -3.508142         3.257839        -1.253951
 H        -3.443359         2.669677         1.262020
 H        -0.770975         3.188405         1.062181
 H        -1.444022         2.033911         2.234469
