19
Iteration:  2707charge 0 multiplicity 1
 O         0.634568         0.595788         0.681636
 C        -0.739522         0.889839         0.555174
 C        -1.766846        -0.076651         0.976664
 C        -2.794024         0.823816         0.051012
 C        -1.573404         1.094647        -0.914705
 O        -1.719671         2.370495        -1.628737
 C        -2.633878         3.056427        -0.749690
 C        -2.628144         2.295975         0.552582
 C        -1.254845         2.308068         1.102544
 H         1.127148         1.432573         0.782325
 H        -1.656816        -1.117117         0.686929
 H        -1.950269        -0.023278         2.140167
 H        -3.762438         0.569117        -0.352013
 H        -1.270430         0.252967        -1.600804
 H        -2.302050         4.140708        -0.768447
 H        -3.609892         3.015723        -1.242387
 H        -3.448306         2.751694         1.187580
 H        -0.559558         3.066844         0.590584
 H        -1.334734         2.555918         2.120213
