19
Iteration:   814charge 0 multiplicity 1
 O         0.626316         0.652901         0.795250
 C        -0.767785         0.951084         0.466466
 C        -1.872184        -0.034681         0.930790
 C        -2.778155         0.852600        -0.026513
 C        -1.482216         1.016833        -0.943277
 O        -1.740315         2.335800        -1.512085
 C        -2.657065         3.069581        -0.762144
 C        -2.633105         2.303094         0.581435
 C        -1.173425         2.301410         1.097942
 H         1.187526         0.564239         0.011567
 H        -1.746079        -1.153419         0.597202
 H        -2.062529        -0.080466         2.010229
 H        -3.711208         0.504615        -0.418107
 H        -1.169831         0.314054        -1.729124
 H        -2.250551         4.063823        -0.670367
 H        -3.621609         3.097066        -1.292328
 H        -3.467514         2.556769         1.263045
 H        -0.633314         3.188405         0.618523
 H        -1.152050         2.426319         2.225779
