19
Iteration:  2899
 O         0.620649         0.775075         0.432294
 C        -0.796806         1.000788         0.540096
 C        -1.891616        -0.069118         0.967885
 C        -2.785733         0.800294         0.077657
 C        -1.535554         1.078622        -0.842434
 O        -1.593033         2.299199        -1.577215
 C        -2.570424         3.048436        -0.693223
 C        -2.692031         2.248678         0.559367
 C        -1.246238         2.262372         1.177040
 H         0.983891         0.306411         1.251978
 H        -1.705739        -0.994742         0.414322
 H        -2.016692        -0.195536         2.038130
 H        -3.736669         0.467191        -0.320363
 H        -1.223135         0.251820        -1.609132
 H        -2.248073         4.108091        -0.743195
 H        -3.513901         3.073157        -1.243714
 H        -3.457983         2.713339         1.220374
 H        -0.714292         3.205755         0.844214
 H        -1.401839         2.258211         2.295783
