19
Iteration:  3341
 O         0.541853         0.690764         0.539442
 C        -0.731964         1.051328         0.461859
 C        -1.776649        -0.024868         0.913003
 C        -2.777889         0.796557         0.058111
 C        -1.523126         0.999080        -0.871637
 O        -1.645676         2.244848        -1.536217
 C        -2.600266         3.067878        -0.738685
 C        -2.680642         2.316161         0.600635
 C        -1.272323         2.266740         1.221978
 H         1.063620         1.409874         0.087537
 H        -1.704847        -1.015643         0.315140
 H        -1.955866        -0.103765         1.989646
 H        -3.839692         0.536783        -0.047948
 H        -1.183353         0.312473        -1.589118
 H        -2.189830         4.165896        -0.660166
 H        -3.579003         3.172351        -1.296090
 H        -3.410615         2.540725         1.342311
 H        -0.599363         3.162249         1.130893
 H        -1.402558         1.988773         2.206242
