19
Iteration:  1892
 O         0.651340         0.633794         0.623300
 C        -0.750252         0.967835         0.505167
 C        -1.812323        -0.004535         0.935381
 C        -2.801833         0.845471         0.069247
 C        -1.540858         1.001469        -0.912290
 O        -1.709473         2.341531        -1.604336
 C        -2.601298         3.088405        -0.750724
 C        -2.689676         2.290278         0.562002
 C        -1.235331         2.218403         1.203435
 H         1.113949         1.516088         0.766420
 H        -1.623666        -0.970537         0.461456
 H        -1.930655        -0.058844         2.025711
 H        -3.713563         0.424818        -0.348953
 H        -1.415733         0.141692        -1.590691
 H        -2.153881         4.130169        -0.726592
 H        -3.587338         3.248293        -1.363665
 H        -3.425632         2.589903         1.262993
 H        -0.752028         3.120963         0.907122
 H        -1.219427         2.177871         2.228618
