19
Iteration:   611charge 0 multiplicity 1
 O         0.548633         0.802143         0.459932
 C        -0.868810         0.992013         0.487510
 C        -1.844336        -0.139238         0.991526
 C        -2.825211         0.827491         0.114901
 C        -1.554092         0.937053        -0.810066
 O        -1.500722         2.264122        -1.526908
 C        -2.448693         3.050518        -0.765146
 C        -2.701678         2.395168         0.549204
 C        -1.330581         2.243060         1.167594
 H         0.904511         1.691031         0.321084
 H        -1.504355        -1.043509         0.536984
 H        -1.920784        -0.420905         2.068686
 H        -3.943899         0.572554        -0.187258
 H        -1.214574         0.080587        -1.517959
 H        -2.122125         4.138269        -0.727319
 H        -3.428041         2.970292        -1.225768
 H        -3.461075         2.954272         1.131856
 H        -0.624043         3.043465         0.827599
 H        -1.386829         2.097518         2.289342
