19
Iteration:   404
 O         0.668378         0.688965         0.728189
 C        -0.766407         1.019282         0.526899
 C        -1.872906        -0.022345         0.901295
 C        -2.794041         0.833104         0.102964
 C        -1.619158         1.024740        -0.926915
 O        -1.668225         2.258137        -1.538481
 C        -2.524991         3.053369        -0.758368
 C        -2.648627         2.302484         0.496057
 C        -1.255885         2.301275         1.127183
 H         1.122712         1.049612        -0.070087
 H        -1.752282        -0.946570         0.307079
 H        -2.141397        -0.289305         2.005262
 H        -3.835926         0.501562        -0.219390
 H        -1.351999         0.212172        -1.695008
 H        -2.157443         4.043226        -0.516528
 H        -3.413679         3.033749        -1.370955
 H        -3.428822         2.525059         1.134926
 H        -0.777576         3.237222         0.791734
 H        -1.295676         2.155481         2.250310
