19
Iteration:  4576charge 0 multiplicity 1
 O         0.656022         0.650752         0.604058
 C        -0.770012         1.000683         0.537159
 C        -1.874702        -0.013691         0.929430
 C        -2.819709         0.797065         0.095336
 C        -1.566580         1.034467        -0.934717
 O        -1.593871         2.282221        -1.503333
 C        -2.547251         3.059247        -0.763554
 C        -2.666715         2.301270         0.555165
 C        -1.310106         2.318265         1.160116
 H         1.073150         1.202028        -0.124916
 H        -1.788890        -0.986339         0.494767
 H        -2.315587        -0.248177         1.892104
 H        -3.715937         0.410272        -0.193958
 H        -1.453264         0.332473        -1.711655
 H        -1.925423         3.909565        -0.582088
 H        -3.493006         3.177422        -1.303856
 H        -3.475271         2.713905         1.135733
 H        -0.732820         3.208982         0.879783
 H        -1.318579         2.200359         2.235266
