19
Iteration:  4956charge 0 multiplicity 1
 O         0.552721         0.578215         0.719404
 C        -0.723171         0.909226         0.443374
 C        -1.796127        -0.035300         0.940687
 C        -2.764154         0.863011         0.090720
 C        -1.522148         1.065838        -0.930606
 O        -1.701302         2.355237        -1.594173
 C        -2.612133         3.044556        -0.771688
 C        -2.719390         2.318480         0.571721
 C        -1.171494         2.293616         1.173169
 H         1.070147         1.397710         0.485490
 H        -1.803114        -1.082528         0.408479
 H        -2.247237        -0.174189         1.965056
 H        -3.626561         0.351156        -0.374856
 H        -1.334623         0.317466        -1.766350
 H        -2.236189         4.062923        -0.586182
 H        -3.523516         3.407502        -1.334925
 H        -3.450217         2.658824         1.301961
 H        -0.519727         2.993840         0.630330
 H        -1.066385         2.431548         2.336723
