19
Iteration:  3924charge 0 multiplicity 1
 O         0.607132         0.632973         0.612787
 C        -0.797291         0.986588         0.506692
 C        -1.882800        -0.042758         1.004706
 C        -2.740118         0.781764         0.047967
 C        -1.499468         1.030794        -0.943055
 O        -1.687321         2.326720        -1.559746
 C        -2.563436         3.074126        -0.760183
 C        -2.679355         2.309706         0.514649
 C        -1.252438         2.288883         1.180997
 H         1.062818         1.419601         0.197958
 H        -1.719588        -1.074221         0.543459
 H        -1.976537        -0.083399         2.094122
 H        -3.792582         0.516155         0.010810
 H        -1.178447         0.319812        -1.746584
 H        -2.186356         4.118491        -0.692921
 H        -3.569180         3.089576        -1.176199
 H        -3.524382         2.765822         1.127925
 H        -0.403758         3.157927         1.105941
 H        -1.268455         2.079301         2.337259
