19
Iteration:   721
 O         0.558054         0.668702         0.619329
 C        -0.766973         0.942405         0.491349
 C        -1.835207         0.025952         1.017957
 C        -2.793838         0.808994        -0.019038
 C        -1.535356         1.018280        -0.867756
 O        -1.620047         2.321358        -1.534405
 C        -2.608856         3.100839        -0.764241
 C        -2.672862         2.300265         0.531415
 C        -1.212388         2.217233         1.108232
 H         1.040458         1.534482         0.679004
 H        -1.775829        -0.889858         0.568883
 H        -1.823781        -0.233758         2.087095
 H        -3.775787         0.339126        -0.406544
 H        -1.404466         0.187546        -1.631693
 H        -2.255941         4.164048        -0.693645
 H        -3.576077         3.100128        -1.214617
 H        -3.247268         2.669826         1.393366
 H        -0.554277         3.060718         0.932915
 H        -1.346346         2.075144         2.222637
