19
Iteration:   629charge 0 multiplicity 1
 O         0.595021         0.689709         0.508676
 C        -0.753901         0.992509         0.532761
 C        -1.874071         0.015186         0.914020
 C        -2.785497         0.816364         0.049138
 C        -1.585108         1.025260        -0.822328
 O        -1.566589         2.211398        -1.478592
 C        -2.562865         3.054557        -0.813897
 C        -2.715740         2.266749         0.568277
 C        -1.250637         2.342773         1.199428
 H         1.212825         1.416593         0.360961
 H        -1.858860        -1.092687         0.616369
 H        -2.130379        -0.093810         1.961917
 H        -3.671515         0.366293        -0.313966
 H        -1.387235         0.333375        -1.613938
 H        -2.093521         4.009984        -0.618575
 H        -3.426094         3.247547        -1.484707
 H        -3.655659         2.577600         1.231283
 H        -0.700362         3.245574         0.881218
 H        -1.224342         2.224106         2.244430
