19
Iteration:  2678
 O         0.544971         0.538886         0.707063
 C        -0.717072         0.984472         0.443036
 C        -1.783513         0.014754         0.956985
 C        -2.736623         0.851947        -0.024484
 C        -1.461642         1.037157        -0.864680
 O        -1.704126         2.310729        -1.598943
 C        -2.721720         3.057157        -0.723448
 C        -2.702378         2.264738         0.632168
 C        -1.179575         2.378072         1.115965
 H         1.192177         1.215394         0.306480
 H        -1.461454        -0.983055         0.719759
 H        -2.041490         0.129513         1.935664
 H        -3.665662         0.535172        -0.620686
 H        -1.394617         0.064451        -1.517279
 H        -2.430396         4.056915        -0.771479
 H        -3.609738         3.084372        -1.413747
 H        -3.536234         2.543109         1.350406
 H        -0.529820         3.178867         0.852619
 H        -1.164939         2.334699         2.279128
