19
Iteration:  3257
 O         0.707627         0.521550         0.593484
 C        -0.715837         0.970377         0.542045
 C        -1.820330        -0.000567         0.951960
 C        -2.747971         0.830152         0.060512
 C        -1.480106         1.072516        -0.860984
 O        -1.761389         2.328796        -1.550849
 C        -2.697039         3.100797        -0.725150
 C        -2.690122         2.316247         0.498719
 C        -1.275774         2.299652         1.134068
 H         1.211228         1.322914         0.434705
 H        -1.645239        -0.897012         0.335220
 H        -1.913266        -0.400748         1.944840
 H        -3.689946         0.507653        -0.330090
 H        -1.256301         0.337256        -1.644772
 H        -2.407815         4.166764        -0.701560
 H        -3.685059         3.101178        -1.160102
 H        -3.447286         2.615732         1.279377
 H        -0.556835         3.102352         0.940351
 H        -1.439210         2.281254         2.280349
