19
Iteration:  1774
 O         0.682559         0.621571         0.626388
 C        -0.667682         0.965789         0.584795
 C        -1.847909        -0.061826         0.893899
 C        -2.700710         0.889997        -0.017182
 C        -1.607057         1.032118        -0.932925
 O        -1.750937         2.282616        -1.564300
 C        -2.676306         3.106627        -0.720031
 C        -2.693073         2.296006         0.567863
 C        -1.218991         2.347536         1.104621
 H         0.790310         0.369975         1.543649
 H        -1.666113        -1.121999         0.513068
 H        -1.973876        -0.085537         1.956995
 H        -3.609175         0.484558        -0.316768
 H        -1.175663         0.260058        -1.577453
 H        -2.208975         4.035457        -0.731317
 H        -3.592484         3.195672        -1.232211
 H        -3.483728         2.520008         1.319844
 H        -0.491308         3.235492         0.787573
 H        -1.370805         2.543071         2.237622
