19
Iteration:  3594
 O         0.635832         0.596967         0.632296
 C        -0.667057         0.987315         0.518292
 C        -1.853435        -0.099929         0.918776
 C        -2.782681         0.787165         0.088432
 C        -1.579691         1.105236        -0.823440
 O        -1.672111         2.338230        -1.511109
 C        -2.713133         3.072268        -0.816184
 C        -2.660211         2.317802         0.530814
 C        -1.198243         2.312601         1.115104
 H         1.294227         1.180410         0.210221
 H        -1.791039        -1.056618         0.360716
 H        -2.082353        -0.096615         2.043365
 H        -3.695264         0.533018        -0.399845
 H        -1.234825         0.302900        -1.485728
 H        -2.461958         4.156887        -0.549468
 H        -3.552446         2.965482        -1.475800
 H        -3.472729         2.641448         1.212793
 H        -0.435674         3.164725         0.878052
 H        -1.350185         2.270491         2.163820
