19
Iteration:  2628charge 0 multiplicity 1
 O         0.619481         0.713632         0.513390
 C        -0.776112         0.987716         0.480296
 C        -1.824011        -0.036580         0.994056
 C        -2.770105         0.882675         0.050398
 C        -1.540577         1.044648        -0.834927
 O        -1.601850         2.219180        -1.481842
 C        -2.559265         3.017809        -0.741656
 C        -2.697057         2.356950         0.569958
 C        -1.354610         2.222943         1.156302
 H         1.122525         1.471852         0.198985
 H        -1.800263        -1.050142         0.428034
 H        -2.101904        -0.113409         2.147461
 H        -3.686295         0.584857        -0.434326
 H        -1.280775         0.257200        -1.460019
 H        -2.271707         4.137839        -0.739850
 H        -3.407629         2.875952        -1.385279
 H        -3.542780         2.692420         1.103990
 H        -0.701547         2.999353         0.618459
 H        -1.165811         2.319102         2.203910
