19
Iteration:  3656charge 0 multiplicity 1
 O         0.580485         0.706125         0.572580
 C        -0.774834         0.947115         0.493474
 C        -1.808374        -0.067557         1.009447
 C        -2.731122         0.778127         0.024050
 C        -1.586567         1.012141        -0.886418
 O        -1.657793         2.263366        -1.566360
 C        -2.524364         3.119129        -0.790922
 C        -2.692719         2.372120         0.587133
 C        -1.282680         2.281557         1.205595
 H         1.160494         1.447594         0.316539
 H        -1.742141        -1.090954         0.540698
 H        -2.066427        -0.222474         2.035202
 H        -3.809877         0.360195        -0.224723
 H        -1.276209         0.447879        -1.724957
 H        -2.016546         4.036568        -0.643711
 H        -3.533175         3.154732        -1.297169
 H        -3.500042         2.574826         1.256846
 H        -0.675391         3.054390         0.844580
 H        -1.312643         2.229596         2.362220
