19
Iteration:  1004charge 0 multiplicity 1
 O         0.563251         0.586583         0.710117
 C        -0.738919         0.991370         0.582558
 C        -1.879343        -0.032545         0.957807
 C        -2.772417         0.740055         0.027381
 C        -1.537877         1.111487        -0.946913
 O        -1.574299         2.468396        -1.515890
 C        -2.718453         3.026570        -0.816828
 C        -2.648158         2.266847         0.544882
 C        -1.183773         2.295415         1.113569
 H         1.058053         0.541439        -0.117083
 H        -1.657572        -0.995545         0.560790
 H        -2.029824        -0.059694         2.137352
 H        -3.762491         0.264421        -0.153268
 H        -1.272596         0.400489        -1.709081
 H        -2.545300         4.055892        -0.563424
 H        -3.603940         2.867766        -1.371792
 H        -3.499438         2.679639         1.134013
 H        -0.544259         2.969589         0.510882
 H        -1.033568         2.428881         2.196576
