19
Iteration:  1286
 O         0.601758         0.663456         0.696400
 C        -0.735524         0.914932         0.515613
 C        -1.880845        -0.023822         0.976116
 C        -2.752649         0.793734         0.071467
 C        -1.517156         1.118018        -0.921262
 O        -1.593083         2.388786        -1.495046
 C        -2.714989         2.991190        -0.797174
 C        -2.653763         2.335025         0.482088
 C        -1.228086         2.270571         1.135974
 H         0.845746         0.034895         0.015355
 H        -1.802279        -1.058998         0.484334
 H        -2.060651        -0.171429         2.128507
 H        -3.685630         0.645471        -0.418495
 H        -1.277811         0.495395        -1.759553
 H        -2.377264         4.043430        -0.690795
 H        -3.571525         2.972317        -1.426472
 H        -3.338962         2.698387         1.308143
 H        -0.644419         3.092848         0.644190
 H        -1.242691         2.438674         2.222256
