19
Iteration:  1374charge 0 multiplicity 1
 O         0.589048         0.845412         0.653018
 C        -0.714938         1.011260         0.453902
 C        -1.873840        -0.003047         0.862108
 C        -2.872205         0.816802         0.096409
 C        -1.599967         0.995024        -0.906073
 O        -1.656227         2.226961        -1.625650
 C        -2.432113         3.092562        -0.749458
 C        -2.617478         2.308298         0.581726
 C        -1.299472         2.192878         1.242692
 H         1.034257         0.011650         0.578876
 H        -1.649573        -0.849383         0.213674
 H        -2.038456        -0.252181         1.972330
 H        -3.854932         0.415165        -0.226818
 H        -1.394392         0.176852        -1.512594
 H        -1.898837         4.010738        -0.421982
 H        -3.434104         3.307725        -1.204259
 H        -3.525444         2.685660         1.116996
 H        -0.774796         3.156224         1.097375
 H        -1.285002         2.040641         2.243759
