19
Iteration:  2684charge 0 multiplicity 1
 O         0.604195         0.539929         0.703448
 C        -0.721196         1.014920         0.473829
 C        -1.843637         0.056801         0.919645
 C        -2.722023         0.804692        -0.002358
 C        -1.461563         1.002964        -0.888814
 O        -1.739924         2.291440        -1.556975
 C        -2.732781         3.078088        -0.752266
 C        -2.710530         2.282986         0.595635
 C        -1.144600         2.374055         1.131840
 H         1.282776         1.174019         0.491712
 H        -1.527119        -0.969948         0.586804
 H        -2.337092        -0.055798         2.021364
 H        -3.619968         0.537009        -0.475634
 H        -1.401092         0.213436        -1.604459
 H        -2.391078         4.199450        -0.670340
 H        -3.543612         3.082941        -1.482920
 H        -3.493229         2.397891         1.361108
 H        -0.499727         3.285322         0.812499
 H        -1.081035         2.272412         2.163454
