19
Iteration:  2695charge 0 multiplicity 1
 O         0.659047         0.537493         0.696013
 C        -0.687087         1.034559         0.552181
 C        -1.892379         0.001936         0.952869
 C        -2.716991         0.818976         0.004295
 C        -1.572052         1.063393        -0.936460
 O        -1.746263         2.292081        -1.520840
 C        -2.694602         3.059093        -0.785391
 C        -2.666504         2.289050         0.497921
 C        -1.172122         2.325364         1.114631
 H         1.256981         1.349179         0.656408
 H        -1.738978        -0.975013         0.428359
 H        -2.181456        -0.165644         2.104965
 H        -3.655959         0.385385        -0.210018
 H        -1.081258         0.431247        -1.642595
 H        -2.258163         4.121541        -0.615624
 H        -3.740710         3.098719        -1.123714
 H        -3.427873         2.567896         1.247842
 H        -0.708449         3.276996         0.667031
 H        -1.065987         2.338683         2.158443
