19
Iteration:  2667
 O         0.541141         0.551073         0.683628
 C        -0.769186         1.013249         0.500327
 C        -1.753107        -0.013874         1.002800
 C        -2.704730         0.847861         0.026436
 C        -1.553079         1.110192        -0.913172
 O        -1.653398         2.324034        -1.601730
 C        -2.668126         3.016943        -0.752810
 C        -2.657765         2.303986         0.554719
 C        -1.261448         2.296505         1.118563
 H         1.160593         1.096214         0.166984
 H        -1.639314        -1.044416         0.747885
 H        -1.783244         0.075074         2.025083
 H        -3.707743         0.461567        -0.359145
 H        -1.114031         0.333782        -1.644482
 H        -2.349451         4.000590        -0.626768
 H        -3.743686         2.887878        -1.016647
 H        -3.456235         2.651631         1.272686
 H        -0.841274         3.176676         0.691534
 H        -1.138656         2.275865         2.264236
