19
Iteration:  4988
 O         0.581399         0.616896         0.589161
 C        -0.768205         0.981309         0.465005
 C        -1.883342         0.036218         0.932805
 C        -2.777040         0.844733         0.060755
 C        -1.522054         1.010460        -0.862532
 O        -1.602254         2.321727        -1.533565
 C        -2.637785         3.065749        -0.784842
 C        -2.700196         2.302814         0.556601
 C        -1.188365         2.236305         1.207910
 H         1.108170         1.413219         0.429136
 H        -1.871021        -1.019278         0.478885
 H        -2.227537        -0.209270         1.994617
 H        -3.729454         0.344329        -0.233651
 H        -1.275239         0.382174        -1.755576
 H        -2.097905         4.031391        -0.619108
 H        -3.515785         3.003578        -1.483761
 H        -3.441164         2.703837         1.245962
 H        -0.565166         3.172115         1.071493
 H        -1.143450         2.243693         2.348060
