19
Iteration:  4747
 O         0.611226         0.584167         0.551512
 C        -0.741683         1.008301         0.526343
 C        -1.864085        -0.008244         0.966603
 C        -2.760908         0.845106         0.011250
 C        -1.597899         0.994006        -0.858169
 O        -1.545380         2.301954        -1.485997
 C        -2.642381         3.074792        -0.737022
 C        -2.711881         2.341316         0.533447
 C        -1.226839         2.292481         1.144978
 H         1.135154         1.254630         0.121307
 H        -1.755707        -0.969306         0.532457
 H        -2.265717         0.074053         1.997251
 H        -3.675014         0.560444        -0.595857
 H        -1.336253         0.204284        -1.585404
 H        -2.394460         4.126781        -0.656880
 H        -3.618830         2.963116        -1.140292
 H        -3.393788         2.701603         1.247254
 H        -0.595533         3.149650         1.082800
 H        -1.416123         1.997746         2.176215
