19
Iteration:  2337
 O         0.633377         0.676034         0.608295
 C        -0.724436         0.993230         0.544504
 C        -1.846768        -0.041940         0.992529
 C        -2.696650         0.825138         0.106263
 C        -1.594813         1.029148        -0.979139
 O        -1.704622         2.269320        -1.583900
 C        -2.599300         3.090681        -0.751233
 C        -2.654074         2.255393         0.537544
 C        -1.266525         2.317435         1.142558
 H         1.205874         1.451944         0.625801
 H        -1.675505        -1.020926         0.416163
 H        -2.339147        -0.321460         1.972289
 H        -3.681281         0.398072        -0.062288
 H        -1.440774         0.194570        -1.733327
 H        -2.186208         4.048697        -0.483816
 H        -3.471561         3.189410        -1.321610
 H        -3.430207         2.591654         1.329166
 H        -0.712630         3.202839         0.777600
 H        -1.352366         2.325449         2.244902
