19
Iteration:  1037
 O         0.645225         0.692325         0.587418
 C        -0.709787         1.029632         0.541858
 C        -1.918800         0.016555         0.941041
 C        -2.738149         0.844539        -0.008731
 C        -1.517108         1.020212        -0.831093
 O        -1.590604         2.251841        -1.616982
 C        -2.636798         3.109081        -0.750685
 C        -2.717149         2.280024         0.506800
 C        -1.303589         2.255676         1.301080
 H         0.833582         0.227561        -0.283504
 H        -1.801753        -0.959223         0.543857
 H        -2.029202        -0.126456         2.117179
 H        -3.699162         0.359338        -0.219505
 H        -1.285700         0.275422        -1.571049
 H        -2.146642         4.040782        -0.538724
 H        -3.465750         3.359867        -1.333866
 H        -3.588188         2.582367         1.135097
 H        -0.664238         3.155711         1.080867
 H        -1.342231         2.131400         2.413124
