19
Iteration:  3321charge 0 multiplicity 1
 O         0.749585         0.661638         0.549271
 C        -0.746562         0.950099         0.516954
 C        -1.866128        -0.093303         0.914256
 C        -2.819117         0.839650         0.064984
 C        -1.590086         1.074732        -0.851605
 O        -1.647466         2.338656        -1.541108
 C        -2.576760         2.989974        -0.749667
 C        -2.762185         2.294425         0.605346
 C        -1.236154         2.334014         1.199257
 H         1.141606         1.449374         0.051921
 H        -1.729715        -1.144831         0.442459
 H        -2.117708        -0.121101         2.003520
 H        -3.567051         0.336246        -0.503432
 H        -1.631708         0.245503        -1.529042
 H        -2.372244         4.164883        -0.677426
 H        -3.563366         3.058440        -1.296636
 H        -3.607960         2.634531         1.237859
 H        -0.677634         3.152291         0.734586
 H        -1.154774         2.360087         2.289662
