19
Iteration:  3477
 O         0.610882         0.682364         0.562857
 C        -0.746616         0.959779         0.463806
 C        -1.860944        -0.153173         1.045761
 C        -2.734726         0.727325         0.077361
 C        -1.557374         1.040812        -0.797105
 O        -1.701447         2.367654        -1.566903
 C        -2.532724         3.120533        -0.800951
 C        -2.704509         2.308064         0.524462
 C        -1.256813         2.288250         1.158468
 H         0.950732         1.287258        -0.076734
 H        -1.601559        -1.039303         0.632625
 H        -1.975491         0.031039         2.113420
 H        -3.669051         0.692207        -0.441589
 H        -1.138818         0.323963        -1.622703
 H        -2.132764         4.162853        -0.548398
 H        -3.584556         3.218934        -1.341761
 H        -3.537371         2.586593         1.284894
 H        -0.718154         3.151658         1.006618
 H        -1.237356         2.098718         2.271270
