19
Iteration:  3436charge 0 multiplicity 1
 O         0.657788         0.544423         0.626345
 C        -0.712153         1.020451         0.428618
 C        -1.813237        -0.060344         0.951372
 C        -2.755851         0.903328         0.048701
 C        -1.527142         1.035597        -0.890982
 O        -1.686305         2.363342        -1.452915
 C        -2.684598         3.029792        -0.779804
 C        -2.727580         2.322938         0.581419
 C        -1.239044         2.315470         1.110084
 H         1.385613         1.182820         0.366355
 H        -1.643768        -1.130446         0.609229
 H        -1.922100        -0.043266         2.024394
 H        -3.666433         0.477389        -0.474412
 H        -1.379562         0.176063        -1.624830
 H        -2.511694         4.048597        -0.866522
 H        -3.684307         2.893164        -1.246711
 H        -3.547907         2.583121         1.262617
 H        -0.650182         3.204038         0.819691
 H        -1.223704         2.095927         2.240771
