19
Iteration:  3899
 O         0.610973         0.547629         0.652387
 C        -0.731708         1.043954         0.485001
 C        -1.850327        -0.011344         0.928922
 C        -2.740584         0.826723         0.002092
 C        -1.519957         1.068497        -0.839493
 O        -1.643692         2.293289        -1.518373
 C        -2.640897         3.085973        -0.769082
 C        -2.761027         2.235265         0.581651
 C        -1.243040         2.317827         1.104956
 H         1.168782         1.276652         0.334669
 H        -1.476681        -0.956733         0.593327
 H        -1.968916         0.079210         2.015134
 H        -3.680946         0.577562        -0.408233
 H        -1.630067         0.274746        -1.574800
 H        -2.197158         4.044429        -0.742760
 H        -3.600763         3.220787        -1.181874
 H        -3.533556         2.625136         1.232552
 H        -0.738991         3.249027         0.726448
 H        -0.786172         2.161680         2.209853
