19
Iteration:  2578charge 0 multiplicity 1
 O         0.635244         0.639108         0.609229
 C        -0.745489         0.963063         0.526156
 C        -1.824307         0.023066         0.932656
 C        -2.741923         0.833368         0.111725
 C        -1.485544         1.008410        -0.880247
 O        -1.736337         2.282838        -1.570340
 C        -2.580787         3.045629        -0.765335
 C        -2.691088         2.320141         0.528344
 C        -1.302673         2.295708         1.144238
 H         0.985962         1.489554         0.346955
 H        -1.839671        -0.894941         0.473583
 H        -1.888321        -0.083362         1.965184
 H        -3.660102         0.315928        -0.136319
 H        -1.176507         0.223101        -1.674775
 H        -2.045971         3.924367        -0.473059
 H        -3.488068         3.299079        -1.488484
 H        -3.531187         2.648360         1.228160
 H        -0.835607         3.263340         1.026305
 H        -1.258706         2.004482         2.213525
