19
Iteration:  4894charge 0 multiplicity 1
 O         0.575165         0.646657         0.546447
 C        -0.796821         0.949247         0.505655
 C        -1.871586         0.019061         0.972434
 C        -2.841000         0.790459         0.082849
 C        -1.535741         1.031991        -0.849364
 O        -1.585360         2.365012        -1.514643
 C        -2.575182         3.038545        -0.796251
 C        -2.610712         2.313083         0.554305
 C        -1.275818         2.232708         1.137196
 H         1.194172         1.251755         0.042716
 H        -1.629852        -1.091327         0.738078
 H        -2.105449        -0.184458         2.021671
 H        -3.658921         0.578179        -0.612241
 H        -1.177202         0.087901        -1.356629
 H        -2.272807         4.093843        -0.639642
 H        -3.618888         3.036064        -1.270415
 H        -3.408182         2.914666         1.197296
 H        -0.595073         3.087036         1.065005
 H        -1.299547         2.353961         2.297035
