19
Iteration:  1405charge 0 multiplicity 1
 O         0.617118         0.748249         0.583773
 C        -0.735810         0.909656         0.515718
 C        -1.902894        -0.068135         1.021207
 C        -2.744677         0.834522         0.013130
 C        -1.519392         0.991904        -0.852065
 O        -1.678230         2.286734        -1.574044
 C        -2.496170         3.132545        -0.773714
 C        -2.631928         2.333439         0.526938
 C        -1.360260         2.260012         1.241900
 H         1.027813         0.429303        -0.269454
 H        -1.598651        -1.043338         0.615422
 H        -2.251663        -0.233103         1.933522
 H        -3.650554         0.426116        -0.369391
 H        -1.177307         0.274862        -1.594622
 H        -2.117453         4.178535        -0.547305
 H        -3.537607         3.355776        -1.243693
 H        -3.579810         2.719720         1.010467
 H        -0.794191         3.142205         0.966861
 H        -1.463166         2.282860         2.303236
