19
Iteration:   467
 O         0.646256         0.658165         0.507971
 C        -0.748683         1.030542         0.463345
 C        -1.840462        -0.008765         0.990616
 C        -2.803035         0.822072         0.058094
 C        -1.614311         1.005578        -0.889867
 O        -1.579291         2.208023        -1.554160
 C        -2.469765         3.110217        -0.751728
 C        -2.789928         2.295515         0.576751
 C        -1.361192         2.313794         1.236020
 H         1.175536         1.465287         0.458717
 H        -1.581921        -1.061467         0.748040
 H        -1.987381        -0.147011         2.015995
 H        -3.621146         0.273521        -0.360811
 H        -1.197245         0.206289        -1.441635
 H        -2.008404         4.147935        -0.501642
 H        -3.418873         3.243599        -1.398546
 H        -3.712260         2.767918         1.033341
 H        -0.731629         3.250905         1.000412
 H        -1.277163         1.979872         2.256543
