19
Iteration:  3905charge 0 multiplicity 1
 O         0.619596         0.578237         0.638449
 C        -0.714033         0.974401         0.505371
 C        -1.823305         0.041125         0.909800
 C        -2.765905         0.855192         0.034526
 C        -1.570823         1.064044        -0.853684
 O        -1.607620         2.267104        -1.569536
 C        -2.660441         3.105349        -0.733472
 C        -2.718998         2.250399         0.586537
 C        -1.277275         2.289918         1.129902
 H         1.328908         1.216142         0.331606
 H        -1.584067        -1.030638         0.687958
 H        -2.052345         0.074947         1.990047
 H        -3.623218         0.502552        -0.658139
 H        -1.514713         0.182628        -1.533210
 H        -2.110504         4.085018        -0.558840
 H        -3.689969         3.198283        -1.282611
 H        -3.482659         2.503403         1.352029
 H        -0.925874         3.281056         0.775420
 H        -0.984240         2.307607         2.121350
