19
Iteration:  1464
 O         0.619589         0.563097         0.680094
 C        -0.756328         0.908567         0.507442
 C        -1.816308        -0.063184         0.946499
 C        -2.774703         0.853210         0.080506
 C        -1.568674         1.072046        -0.861578
 O        -1.582315         2.391300        -1.482809
 C        -2.713530         3.065262        -0.855080
 C        -2.748039         2.302736         0.508082
 C        -1.173072         2.306500         1.091546
 H         1.294413         1.167750         0.427196
 H        -1.517217        -0.947476         0.407523
 H        -2.281199        -0.084490         2.037549
 H        -3.835431         0.479736        -0.132966
 H        -1.138141         0.383267        -1.603760
 H        -2.391710         4.078649        -0.612320
 H        -3.594830         2.927163        -1.544180
 H        -3.522220         2.687225         1.176254
 H        -0.607934         3.201379         0.787883
 H        -1.209132         2.308860         2.169930
