19
Iteration:  2154charge 0 multiplicity 1
 O         0.667217         0.701516         0.621691
 C        -0.676066         0.982499         0.510199
 C        -1.832424        -0.038985         0.916604
 C        -2.771933         0.783786         0.068741
 C        -1.605082         0.956511        -0.921272
 O        -1.728881         2.230081        -1.545398
 C        -2.564370         3.137700        -0.798314
 C        -2.732552         2.378391         0.587799
 C        -1.267670         2.279595         1.194106
 H         1.078840         1.481674         0.232699
 H        -1.871859        -1.114946         0.586361
 H        -1.952360        -0.046651         1.949526
 H        -3.496744         0.175681        -0.419992
 H        -1.368038         0.126617        -1.649572
 H        -1.959191         4.096293        -0.643397
 H        -3.538355         3.296332        -1.276114
 H        -3.471467         2.858721         1.121399
 H        -0.626172         3.162159         1.085686
 H        -1.225827         2.118657         2.373507
