19
Iteration:  3856charge 0 multiplicity 1
 O         0.640158         0.588486         0.657433
 C        -0.739479         0.944224         0.458534
 C        -1.861347        -0.024710         0.958030
 C        -2.768935         0.882804         0.040499
 C        -1.524836         1.070701        -0.892461
 O        -1.678319         2.343337        -1.544564
 C        -2.652487         3.015956        -0.795997
 C        -2.757678         2.341669         0.583023
 C        -1.151552         2.278674         1.172455
 H         1.274106         1.244636         0.400425
 H        -1.697923        -1.005093         0.523820
 H        -2.194894        -0.132658         2.010154
 H        -3.624483         0.518414        -0.432251
 H        -1.247990         0.270737        -1.606458
 H        -2.485212         4.063387        -0.718777
 H        -3.521546         2.870299        -1.406132
 H        -3.647851         2.513447         1.196147
 H        -0.554222         3.221255         0.865315
 H        -1.030182         2.231195         2.349801
