19
Iteration:  2909
 O         0.597094         0.746192         0.438595
 C        -0.737088         0.991787         0.472125
 C        -1.817847        -0.043352         0.920533
 C        -2.845179         0.859084         0.014386
 C        -1.506083         1.003633        -0.803917
 O        -1.549411         2.222081        -1.532696
 C        -2.654073         3.136719        -0.694916
 C        -2.699100         2.310497         0.607410
 C        -1.292912         2.258725         1.184104
 H         1.027518         0.688416         1.336381
 H        -1.565713        -1.060028         0.574205
 H        -2.062554        -0.074109         1.942503
 H        -3.720785         0.622446        -0.581346
 H        -1.364083         0.071237        -1.552430
 H        -2.257455         4.138885        -0.753176
 H        -3.634453         3.000025        -1.134967
 H        -3.541728         2.487633         1.379395
 H        -0.724448         3.161260         0.863246
 H        -1.105545         2.088587         2.300560
