19
Iteration:  2091charge 0 multiplicity 1
 O         0.650224         0.569494         0.579864
 C        -0.743226         0.950659         0.546727
 C        -1.801482         0.004764         1.011460
 C        -2.758237         0.807180         0.090145
 C        -1.538309         1.043529        -0.831707
 O        -1.630864         2.430008        -1.492493
 C        -2.716105         3.031432        -0.814510
 C        -2.689738         2.275187         0.494325
 C        -1.267296         2.265981         1.065812
 H         1.191486         1.194740         0.118133
 H        -1.763381        -1.111090         0.664328
 H        -1.972045         0.118436         2.057258
 H        -3.623212         0.316553        -0.356978
 H        -1.280938         0.337148        -1.653464
 H        -2.452454         4.161406        -0.753403
 H        -3.664912         3.004848        -1.299228
 H        -3.271655         2.685033         1.395708
 H        -0.762746         3.204675         0.783802
 H        -1.351296         2.365656         2.175783
