19
Iteration:  2016
 O         0.580341         0.716025         0.540649
 C        -0.773860         0.957081         0.493797
 C        -1.805541        -0.018268         0.978057
 C        -2.755371         0.790755         0.078759
 C        -1.585732         1.045800        -0.852064
 O        -1.655952         2.283336        -1.597583
 C        -2.589154         3.146041        -0.830498
 C        -2.640590         2.227316         0.602680
 C        -1.266074         2.218906         1.235494
 H         1.217865         1.478341         0.651124
 H        -1.529580        -1.037060         0.560340
 H        -2.007488        -0.018798         2.032764
 H        -3.703536         0.465280        -0.350515
 H        -1.486794         0.280343        -1.623201
 H        -2.088402         4.052960        -0.525482
 H        -3.588073         3.263593        -1.488338
 H        -3.569040         2.636049         1.137693
 H        -0.557762         3.069608         1.039335
 H        -1.299445         2.221592         2.273239
