19
Iteration:  1509charge 0 multiplicity 1
 O         0.578158         0.670271         0.617240
 C        -0.725414         1.031387         0.510947
 C        -1.890414        -0.035597         0.992935
 C        -2.777741         0.759574         0.012094
 C        -1.564038         1.045287        -0.891921
 O        -1.726681         2.313240        -1.635867
 C        -2.525970         3.151401        -0.859225
 C        -2.637811         2.237640         0.568784
 C        -1.215015         2.242087         1.263061
 H         1.086787         1.179048         1.257159
 H        -1.582617        -0.986733         0.539270
 H        -1.998725         0.004822         2.193977
 H        -3.696316         0.307306        -0.411978
 H        -1.373562         0.321872        -1.722635
 H        -1.928400         3.993725        -0.585868
 H        -3.582396         3.240708        -1.248956
 H        -3.510278         2.550646         1.095587
 H        -0.647575         3.095865         0.930808
 H        -1.174159         2.191854         2.356941
