19
Iteration:  3987
 O         0.564037         0.641491         0.561298
 C        -0.792120         0.961640         0.583219
 C        -1.797739        -0.034695         1.000582
 C        -2.789557         0.805319         0.011242
 C        -1.561227         1.048003        -0.882871
 O        -1.590877         2.297985        -1.561850
 C        -2.605780         3.111457        -0.742999
 C        -2.707811         2.346504         0.545984
 C        -1.233953         2.257148         1.132148
 H         1.108455         1.436603         0.437561
 H        -1.597101        -1.061857         0.681750
 H        -1.849228         0.107896         2.084283
 H        -3.724652         0.412540        -0.276750
 H        -1.248168         0.224014        -1.566441
 H        -2.205499         4.115534        -0.692456
 H        -3.586697         3.184791        -1.341037
 H        -3.648835         2.439193         1.165336
 H        -0.629319         2.976719         0.781558
 H        -1.149034         2.004826         2.240277
