19
Iteration:  3356
 O         0.576412         0.675015         0.554115
 C        -0.823828         0.935669         0.451616
 C        -1.780423        -0.128496         1.011909
 C        -2.679064         0.759508         0.117062
 C        -1.575615         1.081647        -0.947162
 O        -1.702943         2.344218        -1.598472
 C        -2.562999         3.101459        -0.769390
 C        -2.665908         2.317570         0.557135
 C        -1.277116         2.307126         1.255654
 H         1.061797         1.467488         0.179840
 H        -1.528898        -1.138853         0.784515
 H        -1.930559        -0.040687         2.115044
 H        -3.457598         0.280465        -0.428732
 H        -1.421076         0.182593        -1.628400
 H        -2.041160         4.062588        -0.566832
 H        -3.548197         3.183060        -1.277920
 H        -3.614338         2.751891         1.066661
 H        -0.691033         3.194691         1.209637
 H        -1.245043         2.071590         2.403854
