19
Iteration:   588
 O         0.648408         0.801315         0.522176
 C        -0.787838         0.949032         0.452380
 C        -1.895041        -0.020061         0.996871
 C        -2.773887         0.823355         0.122761
 C        -1.651702         0.989683        -0.894439
 O        -1.567948         2.246285        -1.523941
 C        -2.482727         3.084131        -0.876246
 C        -2.688621         2.292753         0.535296
 C        -1.275230         2.197342         1.309820
 H         0.755153         1.754443         0.222484
 H        -1.850272        -1.059532         0.600231
 H        -2.116175        -0.165912         2.071520
 H        -3.737303         0.439401        -0.381904
 H        -1.537629         0.061970        -1.542342
 H        -1.948579         4.081038        -0.759917
 H        -3.389921         3.200449        -1.447871
 H        -3.418171         2.800959         1.276159
 H        -0.754507         3.176298         1.126937
 H        -1.439167         1.969521         2.378306
