19
Iteration:  2532charge 0 multiplicity 1
 O         0.604680         0.605320         0.708028
 C        -0.748770         1.004107         0.454171
 C        -1.863116        -0.027935         0.962889
 C        -2.738004         0.837902         0.093607
 C        -1.496777         1.056455        -0.926391
 O        -1.658232         2.329065        -1.532958
 C        -2.764559         3.030594        -0.743718
 C        -2.669338         2.274318         0.514439
 C        -1.154107         2.319751         1.083185
 H         1.314717         1.141682         0.400243
 H        -1.749462        -0.983584         0.585635
 H        -2.077275        -0.130107         2.033186
 H        -3.709933         0.513546        -0.188934
 H        -1.195488         0.367947        -1.713995
 H        -2.349048         4.056536        -0.760988
 H        -3.778626         2.862603        -1.298624
 H        -3.402645         2.575227         1.282371
 H        -0.535729         3.236405         0.767847
 H        -1.260279         2.283007         2.111576
