19
Iteration:    10charge 0 multiplicity 1
 O         0.679507         0.627172         0.609100
 C        -0.727809         0.961906         0.455334
 C        -1.852172        -0.033108         0.916127
 C        -2.769050         0.844737        -0.014928
 C        -1.556778         1.064642        -0.880282
 O        -1.604794         2.373180        -1.530374
 C        -2.598362         3.079616        -0.727974
 C        -2.713128         2.293272         0.571139
 C        -1.246382         2.224235         1.149210
 H         0.702023         0.765477         1.551497
 H        -1.953899        -1.150018         0.556913
 H        -2.223658         0.012441         1.883090
 H        -3.749052         0.503356        -0.212852
 H        -1.543283         0.218286        -1.491417
 H        -2.376486         4.123086        -0.788007
 H        -3.517971         3.010919        -1.194780
 H        -3.554902         2.666387         1.129618
 H        -0.799252         3.228166         0.714434
 H        -1.417592         2.211744         2.236346
