19
Iteration:  3151
 O         0.657824         0.593038         0.608460
 C        -0.730886         1.000700         0.418132
 C        -1.820003         0.006887         0.933728
 C        -2.776721         0.856650         0.037372
 C        -1.525098         0.981875        -0.916064
 O        -1.616215         2.330173        -1.506959
 C        -2.697111         3.095278        -0.707175
 C        -2.774712         2.281938         0.598803
 C        -1.227287         2.315787         1.175166
 H         1.207394         1.152885         0.063881
 H        -1.790233        -0.884715         0.418762
 H        -2.110173        -0.042971         2.014922
 H        -3.661948         0.352673        -0.356712
 H        -1.098925         0.160975        -1.645310
 H        -2.377416         4.125127        -0.868420
 H        -3.778628         2.912767        -1.118080
 H        -3.452824         2.592440         1.453610
 H        -0.771475         3.229508         0.991844
 H        -1.024125         1.978543         2.218784
