19
Iteration:  1723charge 0 multiplicity 1
 O         0.704566         0.705893         0.402934
 C        -0.718947         0.961412         0.537561
 C        -1.933097        -0.023261         1.016303
 C        -2.793538         0.861493         0.032003
 C        -1.571863         1.061904        -0.846638
 O        -1.589750         2.289404        -1.461693
 C        -2.600593         3.068887        -0.778059
 C        -2.739815         2.305623         0.522019
 C        -1.283754         2.217984         1.213162
 H         1.163263         0.979339         1.253143
 H        -1.573303        -0.995989         0.573834
 H        -2.221502        -0.061245         2.063736
 H        -3.685608         0.345637        -0.454961
 H        -1.296919         0.218257        -1.482603
 H        -2.283380         4.154353        -0.836596
 H        -3.575350         2.937442        -1.391038
 H        -3.665161         2.768763         1.006919
 H        -0.691347         2.958468         0.844159
 H        -1.121133         2.141711         2.276995
