19
Iteration:  2570
 O         0.616445         0.621675         0.655030
 C        -0.702540         1.030714         0.477860
 C        -1.855286        -0.019866         0.959502
 C        -2.738808         0.802345         0.106293
 C        -1.529615         1.063548        -0.898014
 O        -1.717046         2.254582        -1.618009
 C        -2.654779         3.080476        -0.769248
 C        -2.670201         2.259561         0.522409
 C        -1.229567         2.353094         1.171520
 H         1.170527         1.364639         0.312052
 H        -1.842922        -1.085280         0.402704
 H        -2.009840        -0.350331         2.006452
 H        -3.791705         0.464534        -0.190392
 H        -1.040099         0.254975        -1.508829
 H        -2.211760         3.996385        -0.346301
 H        -3.534037         3.345161        -1.424673
 H        -3.444983         2.621028         1.214341
 H        -0.592604         3.185451         1.036210
 H        -1.341482         2.159508         2.333471
