19
Iteration:  2023charge 0 multiplicity 1
 O         0.577688         0.698894         0.597281
 C        -0.722490         0.918068         0.478420
 C        -1.768283        -0.050778         0.983443
 C        -2.726219         0.839589         0.046651
 C        -1.600978         1.030732        -0.848883
 O        -1.713504         2.321974        -1.626375
 C        -2.626458         3.139879        -0.901745
 C        -2.626768         2.236318         0.633111
 C        -1.267270         2.235219         1.250110
 H         1.158789         1.513085         0.688319
 H        -1.770108        -1.133072         0.600150
 H        -1.900620        -0.091986         2.058208
 H        -3.660333         0.530331        -0.382059
 H        -1.451010         0.156551        -1.555456
 H        -2.049696         4.106932        -0.557180
 H        -3.414067         3.507486        -1.445413
 H        -3.400691         2.495388         1.367646
 H        -0.706688         3.055887         0.878912
 H        -1.389935         2.151606         2.387854
