19
Iteration:   107charge 0 multiplicity 1
 O         0.575466         0.890498         0.329016
 C        -0.881516         0.936697         0.511067
 C        -1.864138        -0.136433         1.044331
 C        -2.855437         0.876494         0.124275
 C        -1.538218         0.998297        -0.916599
 O        -1.438856         2.271025        -1.492553
 C        -2.411757         3.034798        -0.779811
 C        -2.760535         2.333680         0.563014
 C        -1.327696         2.184767         1.241112
 H         0.978142         1.101529         1.170801
 H        -1.890614        -1.211945         0.574117
 H        -2.250872        -0.021486         2.023611
 H        -3.828953         0.531962        -0.080099
 H        -1.319620         0.252472        -1.619620
 H        -2.031175         4.045844        -0.570901
 H        -3.392164         2.938902        -1.482033
 H        -3.642809         2.678295         1.079224
 H        -0.655810         3.091584         0.998453
 H        -1.290046         2.090962         2.338420
