19
Iteration:  1668
 O         0.630297         0.714788         0.544569
 C        -0.778489         0.980009         0.468727
 C        -1.836288        -0.047246         0.927680
 C        -2.800061         0.830673         0.112603
 C        -1.540986         1.032014        -0.857184
 O        -1.612110         2.278285        -1.553706
 C        -2.602437         3.120887        -0.819784
 C        -2.694864         2.282901         0.554218
 C        -1.277462         2.262388         1.172461
 H         0.950126         0.770712         1.451728
 H        -1.692693        -1.167777         0.632145
 H        -1.914388        -0.121044         2.010371
 H        -3.784188         0.337374        -0.313493
 H        -1.284191         0.268746        -1.625595
 H        -2.052709         4.062342        -0.541222
 H        -3.558468         3.308344        -1.342948
 H        -3.471289         2.837649         1.239352
 H        -0.608599         3.145837         0.962332
 H        -1.323163         1.949480         2.233247
