19
Iteration:  1102charge 0 multiplicity 1
 O         0.668818         0.824106         0.631930
 C        -0.808479         0.988513         0.463141
 C        -1.903406        -0.136817         0.950536
 C        -2.768446         0.808865         0.010670
 C        -1.548457         1.016748        -0.887572
 O        -1.643387         2.290845        -1.593242
 C        -2.553264         3.095826        -0.751148
 C        -2.655858         2.352620         0.513065
 C        -1.253297         2.236787         1.241580
 H         0.786755        -0.116180         0.610115
 H        -1.957775        -1.114035         0.616292
 H        -2.031177        -0.086541         2.088417
 H        -3.726548         0.454396        -0.402439
 H        -1.272596         0.131264        -1.403564
 H        -2.124701         4.087498        -0.637287
 H        -3.590540         3.306831        -1.206751
 H        -3.476713         2.622207         1.161593
 H        -0.682168         3.197167         0.935034
 H        -1.248352         2.155147         2.405211
