19
Iteration:  4914charge 0 multiplicity 1
 O         0.632187         0.542939         0.601213
 C        -0.769311         0.953289         0.521051
 C        -1.893874         0.002731         0.930634
 C        -2.679512         0.864028         0.060586
 C        -1.533882         1.080680        -0.916303
 O        -1.638014         2.287053        -1.548843
 C        -2.623548         3.080722        -0.772064
 C        -2.731506         2.317055         0.570268
 C        -1.235271         2.311914         1.200813
 H         1.075073         1.338104         0.271832
 H        -1.685553        -1.123339         0.679077
 H        -2.067317         0.003508         2.052184
 H        -3.686012         0.504315        -0.193167
 H        -1.455080         0.261380        -1.693718
 H        -2.326662         4.138307        -0.775637
 H        -3.579505         3.157119        -1.444410
 H        -3.731680         2.597052         0.976886
 H        -0.634385         3.163155         1.071247
 H        -1.026121         2.167686         2.353180
