19
Iteration:   141charge 0 multiplicity 1
 O         0.619201         0.810656         0.402019
 C        -0.793632         0.956333         0.562322
 C        -1.881953        -0.153788         0.989037
 C        -2.799865         0.835333        -0.002922
 C        -1.538265         1.006439        -0.833774
 O        -1.636479         2.214155        -1.551036
 C        -2.439897         3.093716        -0.743134
 C        -2.718108         2.364069         0.574108
 C        -1.307207         2.263018         1.246412
 H         1.104325         1.137684         1.169954
 H        -1.653344        -1.238227         0.647841
 H        -2.305823        -0.261283         1.981411
 H        -3.776534         0.672489        -0.392643
 H        -1.193637         0.205087        -1.434895
 H        -2.008837         4.094502        -0.665952
 H        -3.362299         3.404788        -1.479563
 H        -3.608722         2.753790         1.005285
 H        -0.646790         3.158233         0.974967
 H        -1.340549         2.110767         2.339551
