19
Iteration:  2040charge 0 multiplicity 1
 O         0.680694         0.634328         0.706697
 C        -0.741069         0.963034         0.489173
 C        -1.808537        -0.072085         0.919074
 C        -2.750287         0.831219         0.085535
 C        -1.538854         1.068443        -0.936757
 O        -1.801611         2.254240        -1.652797
 C        -2.585120         3.138837        -0.723200
 C        -2.706577         2.350722         0.553401
 C        -1.236560         2.249387         1.159184
 H         1.243013         1.439752         0.696341
 H        -1.635079        -1.010674         0.450160
 H        -1.995663        -0.160999         2.034666
 H        -3.740319         0.439675        -0.251804
 H        -1.270909         0.356826        -1.694619
 H        -2.104812         4.080479        -0.662162
 H        -3.658477         3.100171        -1.186489
 H        -3.573763         2.725930         1.148424
 H        -0.564744         3.148599         1.049193
 H        -1.180047         2.121258         2.268302
