19
Iteration:   223charge 0 multiplicity 1
 O         0.608436         0.657537         0.572307
 C        -0.758477         0.944335         0.484782
 C        -1.873166        -0.057320         0.971536
 C        -2.770753         0.803090         0.001184
 C        -1.531001         1.047665        -0.907110
 O        -1.595881         2.381167        -1.428565
 C        -2.696149         3.023026        -0.796484
 C        -2.663516         2.325367         0.595536
 C        -1.184664         2.334751         1.090016
 H         0.826498         0.335314         1.449504
 H        -1.841784        -1.034559         0.576340
 H        -2.140341         0.016808         2.013859
 H        -3.724985         0.370082        -0.455227
 H        -1.279494         0.208890        -1.620797
 H        -2.525511         4.143050        -0.943510
 H        -3.586920         2.736089        -1.376651
 H        -3.489757         2.695187         1.296217
 H        -0.535056         3.107773         0.620878
 H        -0.982725         2.573844         2.139736
