19
Iteration:    73charge 0 multiplicity 1
 O         0.624789         0.566894         0.532821
 C        -0.704327         1.000355         0.518347
 C        -1.887014         0.023903         0.921022
 C        -2.740591         0.880288         0.031463
 C        -1.492712         1.071479        -0.893311
 O        -1.646740         2.295889        -1.494803
 C        -2.615460         3.046383        -0.773995
 C        -2.772712         2.273131         0.511754
 C        -1.253330         2.343260         1.212024
 H         1.028836         0.611520         1.401335
 H        -1.668406        -1.055936         0.513810
 H        -2.276006        -0.154540         1.931014
 H        -3.682853         0.436098        -0.246806
 H        -1.095459         0.386630        -1.619379
 H        -2.209995         4.081263        -0.697964
 H        -3.672168         3.219625        -1.316477
 H        -3.507445         2.523002         1.262010
 H        -0.553281         3.143060         0.805661
 H        -1.233552         2.157878         2.298588
