19
Iteration:  4385charge 0 multiplicity 1
 O         0.620176         0.686247         0.612875
 C        -0.758632         0.931724         0.512154
 C        -1.828285        -0.029679         0.980358
 C        -2.798053         0.815910         0.071624
 C        -1.589533         1.062146        -0.985632
 O        -1.658427         2.288110        -1.544719
 C        -2.541579         3.073295        -0.815259
 C        -2.642562         2.344194         0.543133
 C        -1.287172         2.202429         1.249540
 H         1.167657         1.471505         0.587659
 H        -1.763704        -0.991237         0.493129
 H        -1.915537        -0.218679         2.042927
 H        -3.810550         0.549391        -0.277761
 H        -1.310717         0.320917        -1.711205
 H        -2.375590         4.081450        -0.583911
 H        -3.626492         3.114195        -1.306077
 H        -3.405966         2.840759         1.103940
 H        -0.723224         2.974085         0.775368
 H        -1.089710         2.280487         2.388370
