19
Iteration:  1813
 O         0.607916         0.687560         0.511484
 C        -0.787191         1.026420         0.466619
 C        -1.786142         0.018966         0.957703
 C        -2.751132         0.863585         0.037566
 C        -1.599848         1.060807        -0.937979
 O        -1.588169         2.256099        -1.548315
 C        -2.624622         3.015024        -0.713064
 C        -2.691848         2.271454         0.587658
 C        -1.244351         2.307995         1.202404
 H         0.925025         0.207858         1.340112
 H        -1.703596        -0.974760         0.644281
 H        -2.059256         0.122840         2.058890
 H        -3.796924         0.629158        -0.351534
 H        -1.240329         0.174500        -1.509364
 H        -2.330703         4.129697        -0.588898
 H        -3.661967         2.910112        -1.305288
 H        -3.546615         2.427952         1.214005
 H        -0.679274         3.156335         0.904681
 H        -1.212303         2.169462         2.235961
