19
Iteration:  1936
 O         0.628461         0.593590         0.726369
 C        -0.669170         1.021280         0.474919
 C        -1.805924         0.065305         0.920243
 C        -2.745564         0.854198        -0.034843
 C        -1.614652         1.064041        -0.881500
 O        -1.667030         2.309975        -1.567112
 C        -2.653248         3.022294        -0.737617
 C        -2.729328         2.248156         0.624396
 C        -1.209722         2.294770         1.132260
 H         1.216940         0.773767        -0.077070
 H        -1.672964        -0.847082         0.314063
 H        -2.154146        -0.117376         1.942661
 H        -3.682976         0.413539        -0.338472
 H        -1.261406         0.256847        -1.566610
 H        -2.454713         4.147096        -0.545365
 H        -3.759057         3.015451        -1.207361
 H        -3.549660         2.502243         1.261553
 H        -0.678335         3.164024         0.851239
 H        -1.069440         2.212044         2.123554
