19
Iteration:  3458charge 0 multiplicity 1
 O         0.559564         0.605411         0.564943
 C        -0.739581         1.018141         0.513798
 C        -1.835063         0.022009         0.982726
 C        -2.751978         0.756465         0.007353
 C        -1.495805         1.081660        -0.904545
 O        -1.628791         2.302587        -1.569542
 C        -2.671005         3.059028        -0.688816
 C        -2.687612         2.256836         0.577038
 C        -1.211654         2.338968         1.193417
 H         1.116002         1.107617        -0.032521
 H        -1.647631        -0.987552         0.543848
 H        -2.216711        -0.050971         1.980827
 H        -3.772194         0.307319        -0.240438
 H        -1.213731         0.254306        -1.607209
 H        -2.296039         4.012465        -0.498074
 H        -3.593346         3.162584        -1.289852
 H        -3.502904         2.536147         1.238578
 H        -0.723897         3.210177         0.750482
 H        -1.144637         2.338223         2.331538
