19
Iteration:  3130
 O         0.592833         0.590496         0.667851
 C        -0.725093         0.923367         0.512668
 C        -1.783209        -0.115816         0.973535
 C        -2.736589         0.806784         0.063444
 C        -1.596583         1.162873        -0.882870
 O        -1.725652         2.406462        -1.529719
 C        -2.646677         3.082865        -0.793119
 C        -2.640575         2.253357         0.529415
 C        -1.192981         2.261056         1.097517
 H         1.120978         1.299535         0.259283
 H        -1.563012        -1.065222         0.602158
 H        -1.837557         0.060542         2.081237
 H        -3.726839         0.489199        -0.298536
 H        -1.379130         0.470599        -1.792789
 H        -2.469432         4.161615        -0.531124
 H        -3.633492         3.079911        -1.375442
 H        -3.427938         2.446399         1.294836
 H        -0.736657         3.080172         0.644664
 H        -1.178519         2.345629         2.176696
