19
Iteration:  4696
 O         0.594264         0.674813         0.628530
 C        -0.767025         0.997535         0.450370
 C        -1.872551        -0.005067         0.901672
 C        -2.858045         0.809713         0.040517
 C        -1.500867         1.038647        -0.854712
 O        -1.702393         2.249751        -1.502230
 C        -2.481622         3.087995        -0.764537
 C        -2.646943         2.268192         0.530717
 C        -1.239596         2.256044         1.186649
 H         1.105356         1.359792         0.188580
 H        -1.751527        -1.008422         0.425818
 H        -2.032634        -0.064582         1.971663
 H        -3.815932         0.643744        -0.239027
 H        -1.264049         0.369287        -1.619509
 H        -1.965729         4.003255        -0.551448
 H        -3.549332         3.299220        -1.147940
 H        -3.406546         2.775206         1.080992
 H        -0.701181         3.133337         0.922798
 H        -1.306459         2.070390         2.334987
