19
Iteration:  1424charge 0 multiplicity 1
 O         0.646304         0.653908         0.594885
 C        -0.745680         1.055356         0.566824
 C        -1.921712         0.001280         0.951366
 C        -2.803766         0.811830        -0.016519
 C        -1.516829         1.095729        -0.860089
 O        -1.563793         2.276393        -1.532228
 C        -2.601379         3.029949        -0.768169
 C        -2.762484         2.271910         0.564542
 C        -1.224901         2.292110         1.166999
 H         0.868458         0.652230        -0.387383
 H        -1.882466        -1.098918         0.634521
 H        -2.130719         0.144178         2.021545
 H        -3.753130         0.499970        -0.393557
 H        -1.226960         0.193954        -1.521681
 H        -2.190958         4.029326        -0.593854
 H        -3.490663         3.163672        -1.379749
 H        -3.643443         2.420426         1.225446
 H        -0.584923         3.158395         1.047063
 H        -1.175681         2.074510         2.363048
