19
Iteration:   887
 O         0.569596         0.869201         0.504609
 C        -0.840561         0.915425         0.548136
 C        -1.867385        -0.107830         0.985215
 C        -2.817044         0.776145         0.068531
 C        -1.571075         1.034809        -0.868497
 O        -1.568986         2.331392        -1.517672
 C        -2.507006         3.073297        -0.793801
 C        -2.656778         2.320218         0.541473
 C        -1.244744         2.235666         1.181041
 H         1.048032         0.114079         0.952475
 H        -1.949272        -1.023776         0.507379
 H        -1.889623        -0.171083         2.027572
 H        -3.888116         0.612422        -0.211419
 H        -1.215769         0.329715        -1.614995
 H        -2.170743         4.137366        -0.800666
 H        -3.422579         2.992823        -1.475344
 H        -3.490502         2.650986         1.056612
 H        -0.551133         2.979234         0.838590
 H        -1.240604         2.024664         2.256185
