19
Iteration:  4799charge 0 multiplicity 1
 O         0.610535         0.497671         0.699945
 C        -0.752252         0.986722         0.490261
 C        -1.834655        -0.026688         0.904145
 C        -2.703606         0.835033         0.039390
 C        -1.592563         1.016126        -0.965151
 O        -1.703659         2.298777        -1.509833
 C        -2.617702         3.120986        -0.799622
 C        -2.673429         2.359479         0.568173
 C        -1.237605         2.321408         1.180223
 H         1.145756         1.296593         0.639956
 H        -1.655327        -1.008995         0.421048
 H        -1.864867        -0.056994         2.007564
 H        -3.732369         0.588478        -0.379625
 H        -1.241540         0.348083        -1.791435
 H        -2.220113         4.211918        -0.743347
 H        -3.681997         3.291040        -1.243869
 H        -3.450219         2.445689         1.390992
 H        -0.629137         3.189165         0.722975
 H        -1.058219         2.403235         2.202665
