19
Iteration:  2934charge 0 multiplicity 1
 O         0.621600         0.674477         0.508948
 C        -0.719611         0.964574         0.489725
 C        -1.870758        -0.050319         0.971333
 C        -2.823061         0.777387         0.135259
 C        -1.536451         1.081439        -0.915160
 O        -1.637043         2.382489        -1.511121
 C        -2.587677         3.046961        -0.753473
 C        -2.680053         2.258429         0.508347
 C        -1.257315         2.251252         1.156444
 H         1.187908         1.367958         0.978145
 H        -1.752203        -1.051381         0.568121
 H        -2.069106        -0.205220         2.106681
 H        -3.768992         0.415531        -0.254003
 H        -1.355240         0.412006        -1.777643
 H        -2.176531         4.124986        -0.613021
 H        -3.628746         2.946819        -1.182657
 H        -3.433427         2.599265         1.164303
 H        -0.604158         3.222237         0.929690
 H        -1.268513         2.117051         2.273553
