19
Iteration:  3632
 O         0.534634         0.684311         0.547440
 C        -0.790798         1.025425         0.458890
 C        -1.812832        -0.018599         0.977807
 C        -2.777248         0.770906         0.031170
 C        -1.580136         1.043259        -0.808198
 O        -1.607063         2.292961        -1.575014
 C        -2.558025         3.060466        -0.753405
 C        -2.671280         2.264075         0.511321
 C        -1.225044         2.286442         1.200966
 H         1.130075         1.417927         0.215655
 H        -1.644566        -1.079013         0.753383
 H        -2.122465         0.060704         1.996929
 H        -3.779671         0.262149        -0.116018
 H        -1.237163         0.290298        -1.528256
 H        -2.044652         3.945929        -0.484318
 H        -3.537880         3.239544        -1.162942
 H        -3.416752         2.668991         1.205742
 H        -0.689803         3.213535         1.081967
 H        -1.331314         1.975750         2.323502
