19
Iteration:  4871
 O         0.561095         0.691090         0.540426
 C        -0.781180         0.960312         0.465660
 C        -1.845190        -0.036868         0.998421
 C        -2.817382         0.871087         0.053691
 C        -1.572363         1.001823        -0.912199
 O        -1.504354         2.260490        -1.480546
 C        -2.555366         3.130204        -0.799781
 C        -2.734824         2.284612         0.595604
 C        -1.261887         2.287681         1.163209
 H         1.205105         1.178021         0.057657
 H        -2.036255        -1.092317         0.514468
 H        -2.098808        -0.393929         2.018569
 H        -3.845862         0.504476        -0.110883
 H        -1.173021         0.132905        -1.528838
 H        -2.128306         4.124891        -0.685109
 H        -3.497753         3.121909        -1.444639
 H        -3.477716         2.383495         1.478622
 H        -0.793589         3.216278         0.921524
 H        -1.057258         2.430994         2.318919
