19
Iteration:  2693charge 0 multiplicity 1
 O         0.658021         0.536902         0.697470
 C        -0.694349         1.046970         0.545376
 C        -1.901944         0.024258         0.944930
 C        -2.703641         0.807158         0.008324
 C        -1.551446         1.047229        -0.934984
 O        -1.748462         2.282610        -1.516697
 C        -2.700573         3.072164        -0.789061
 C        -2.681989         2.295458         0.510272
 C        -1.156110         2.336098         1.115348
 H         1.263766         1.281423         0.635695
 H        -1.722420        -0.989250         0.409442
 H        -2.221815        -0.173060         2.047126
 H        -3.667778         0.395086        -0.240418
 H        -1.150641         0.423549        -1.654596
 H        -2.269362         4.118836        -0.563797
 H        -3.776271         3.069676        -1.194919
 H        -3.396297         2.489412         1.252177
 H        -0.716153         3.258089         0.696607
 H        -1.032948         2.274457         2.192988
