19
Iteration:  3862
 O         0.636043         0.569046         0.655476
 C        -0.763682         0.962109         0.500578
 C        -1.849469        -0.034983         0.968724
 C        -2.732687         0.890543         0.022191
 C        -1.521843         1.079443        -0.889451
 O        -1.633037         2.358295        -1.592915
 C        -2.701107         3.058747        -0.774983
 C        -2.738062         2.300265         0.587832
 C        -1.155846         2.277848         1.170945
 H         1.211053         1.342682         0.387249
 H        -1.571567        -1.062957         0.631664
 H        -2.170628        -0.230035         2.001512
 H        -3.813117         0.571049        -0.319757
 H        -1.530640         0.181222        -1.524239
 H        -2.453032         4.162550        -0.777559
 H        -3.630938         2.744491        -1.364445
 H        -3.626973         2.525724         1.193457
 H        -0.588522         3.066418         0.786245
 H        -1.133230         2.271844         2.230599
