19
Iteration:  3368
 O         0.651684         0.650111         0.567754
 C        -0.698526         0.983885         0.509655
 C        -1.759115        -0.044505         1.035661
 C        -2.793098         0.786934         0.018795
 C        -1.593280         1.058149        -0.876016
 O        -1.709634         2.332579        -1.628580
 C        -2.553618         3.116767        -0.734341
 C        -2.704303         2.274597         0.544624
 C        -1.314268         2.204173         1.206652
 H         1.146036         1.454693         0.255473
 H        -1.643392        -1.011924         0.650249
 H        -1.986196        -0.084785         2.128218
 H        -3.825763         0.526871        -0.214975
 H        -1.287597         0.348695        -1.734739
 H        -2.169077         4.101892        -0.560546
 H        -3.540873         3.305328        -1.187145
 H        -3.544044         2.675345         1.237771
 H        -0.792876         3.042972         0.818923
 H        -1.250164         2.170082         2.389754
