19
Iteration:  4365
 O         0.557912         0.612721         0.615179
 C        -0.758322         0.986758         0.482886
 C        -1.867543        -0.026902         0.932615
 C        -2.705028         0.806880         0.048957
 C        -1.529202         1.036432        -0.841483
 O        -1.642916         2.332997        -1.590781
 C        -2.661876         3.069970        -0.779291
 C        -2.667170         2.304715         0.619401
 C        -1.175719         2.280562         1.104607
 H         1.100361         1.441670         0.735270
 H        -1.738386        -1.081920         0.584446
 H        -2.046964        -0.129937         2.016140
 H        -3.732059         0.538000        -0.315522
 H        -1.200027         0.187980        -1.558667
 H        -2.233384         4.102396        -0.664363
 H        -3.701897         3.072800        -1.233182
 H        -3.452537         2.671297         1.222023
 H        -0.757156         3.289249         0.993371
 H        -1.314332         2.090066         2.287210
