19
Iteration:   470
 O         0.609997         0.660080         0.511052
 C        -0.754388         1.023643         0.476912
 C        -1.828410        -0.022343         0.996882
 C        -2.756563         0.858017         0.064949
 C        -1.611833         0.994838        -0.872817
 O        -1.585067         2.232622        -1.544530
 C        -2.482721         3.111346        -0.759364
 C        -2.799594         2.270041         0.565982
 C        -1.334452         2.314365         1.202831
 H         1.175342         1.442130         0.503900
 H        -1.603239        -1.013718         0.660921
 H        -2.055849        -0.211042         2.096505
 H        -3.684634         0.301137        -0.358443
 H        -1.129966         0.183534        -1.512210
 H        -2.035443         4.111963        -0.561112
 H        -3.427007         3.204250        -1.340342
 H        -3.594100         2.719375         0.989780
 H        -0.766587         3.192579         0.930560
 H        -1.279752         2.002737         2.292690
