19
Iteration:  3540charge 0 multiplicity 1
 O         0.627936         0.605897         0.566911
 C        -0.721526         0.896528         0.584163
 C        -1.828314         0.032463         0.996684
 C        -2.723467         0.800199         0.026194
 C        -1.528870         1.035316        -0.856948
 O        -1.730010         2.351622        -1.533936
 C        -2.663082         3.126718        -0.798839
 C        -2.691108         2.306565         0.522545
 C        -1.225149         2.243921         1.136192
 H         1.116277         1.427088         0.567810
 H        -1.717201        -0.958997         0.439674
 H        -2.125510        -0.311651         2.083926
 H        -3.700459         0.462557        -0.243242
 H        -1.146908         0.311576        -1.626558
 H        -2.204824         4.140545        -0.461551
 H        -3.512821         3.235148        -1.382060
 H        -3.684848         2.435564         1.073047
 H        -0.519963         3.180417         0.743293
 H        -1.110711         2.271104         2.232207
