19
Iteration:  2900charge 0 multiplicity 1
 O         0.618896         0.772796         0.434325
 C        -0.795385         1.004212         0.534705
 C        -1.885763        -0.069831         0.961969
 C        -2.795358         0.804820         0.074532
 C        -1.530010         1.070641        -0.834830
 O        -1.585211         2.291295        -1.579223
 C        -2.576694         3.054024        -0.679818
 C        -2.695835         2.251624         0.559916
 C        -1.246745         2.257782         1.177015
 H         1.002370         0.338538         1.239487
 H        -1.688650        -0.987567         0.413114
 H        -2.014997        -0.175009         2.071670
 H        -3.736906         0.493526        -0.356581
 H        -1.252012         0.274307        -1.599121
 H        -2.260994         4.133123        -0.802710
 H        -3.531680         3.085472        -1.229893
 H        -3.438192         2.685080         1.217455
 H        -0.723988         3.228961         0.824264
 H        -1.397682         2.240779         2.285748
