19
Iteration:  2120
 O         0.550104         0.667522         0.473664
 C        -0.818845         1.001702         0.483113
 C        -1.858145        -0.005601         0.958706
 C        -2.753922         0.799801         0.090677
 C        -1.506590         1.010526        -0.862425
 O        -1.514460         2.315979        -1.492344
 C        -2.623821         2.934625        -0.745741
 C        -2.722281         2.328444         0.609729
 C        -1.266361         2.345306         1.176786
 H         1.175426         1.374021         0.197630
 H        -1.804934        -1.035796         0.619351
 H        -2.027862         0.066201         2.023398
 H        -3.538462         0.249563        -0.383447
 H        -1.222697         0.266791        -1.644120
 H        -2.364258         4.002657        -0.804367
 H        -3.640269         2.910053        -1.247993
 H        -3.350664         2.820662         1.257232
 H        -0.844747         3.210916         0.686664
 H        -1.167281         2.236478         2.340356
