19
Iteration:  4191
 O         0.574426         0.572018         0.661204
 C        -0.713354         0.982191         0.506122
 C        -1.836439         0.007972         0.878484
 C        -2.771257         0.846752         0.062622
 C        -1.543152         1.065831        -0.889683
 O        -1.617329         2.310198        -1.538585
 C        -2.675857         3.039210        -0.764411
 C        -2.726324         2.326418         0.588396
 C        -1.214845         2.270714         1.155627
 H         1.286175         1.193339         0.478875
 H        -1.495228        -0.941003         0.490264
 H        -1.801578         0.019497         1.983234
 H        -3.711785         0.461866        -0.294237
 H        -1.362695         0.309062        -1.669111
 H        -2.322645         4.117548        -0.722983
 H        -3.663730         2.967280        -1.453325
 H        -3.465421         2.612292         1.276982
 H        -0.715376         3.120530         0.615954
 H        -1.105736         2.367903         2.165817
