19
Iteration:  2718
 O         0.569173         0.651563         0.666467
 C        -0.775219         0.968079         0.473502
 C        -1.796579        -0.089387         0.974263
 C        -2.725984         0.810822         0.111808
 C        -1.532566         1.009847        -0.892228
 O        -1.651197         2.328665        -1.650278
 C        -2.639270         3.120693        -0.815421
 C        -2.717065         2.345827         0.589151
 C        -1.203278         2.256620         1.137922
 H         1.009140         1.467694         0.797505
 H        -1.565443        -1.090132         0.613856
 H        -2.007763        -0.083442         2.141923
 H        -3.674453         0.459581        -0.279115
 H        -1.612440         0.245395        -1.702728
 H        -2.376937         4.171045        -0.482094
 H        -3.598065         3.067931        -1.337907
 H        -3.429965         2.559819         1.441583
 H        -0.577787         3.124921         0.701656
 H        -0.990872         2.138966         2.167629
