19
Iteration:  2991
 O         0.663856         0.600710         0.666214
 C        -0.695576         0.986625         0.513363
 C        -1.830037        -0.030973         0.902593
 C        -2.789969         0.817996         0.031376
 C        -1.550959         1.106350        -0.911120
 O        -1.644724         2.348375        -1.640457
 C        -2.714663         3.056942        -0.713261
 C        -2.727023         2.305083         0.628522
 C        -1.230432         2.280255         1.180835
 H         1.129212         0.699889        -0.146374
 H        -1.648113        -1.056749         0.468039
 H        -2.013562        -0.068292         2.031880
 H        -3.733033         0.389260        -0.372685
 H        -1.204997         0.342674        -1.536737
 H        -2.322661         4.136925        -0.569093
 H        -3.739572         3.171645        -1.178481
 H        -3.460751         2.451564         1.379574
 H        -0.487489         3.157116         0.928325
 H        -1.177392         2.143128         2.270732
