19
Iteration:  3163charge 0 multiplicity 1
 O         0.596885         0.619507         0.546311
 C        -0.722304         1.049699         0.455608
 C        -1.839812         0.025651         0.876458
 C        -2.775896         0.825492        -0.008188
 C        -1.567108         1.091751        -0.836895
 O        -1.641405         2.275116        -1.458313
 C        -2.624129         3.006786        -0.775718
 C        -2.679181         2.273407         0.637568
 C        -1.225781         2.277505         1.222437
 H         1.193580         1.214867        -0.013554
 H        -1.564936        -0.980666         0.653777
 H        -1.936726        -0.038767         1.998062
 H        -3.775760         0.575105        -0.412151
 H        -1.369519         0.264329        -1.611216
 H        -2.351051         4.097177        -0.642059
 H        -3.547041         2.902579        -1.439034
 H        -3.604409         2.427444         1.205370
 H        -0.756773         3.211561         0.977028
 H        -1.179968         2.224233         2.298315
