19
Iteration:  2148
 O         0.655861         0.712105         0.582477
 C        -0.751230         0.983763         0.517303
 C        -1.829538        -0.062490         0.966471
 C        -2.767726         0.794222         0.077151
 C        -1.617111         0.983450        -0.906916
 O        -1.663794         2.234410        -1.537017
 C        -2.618385         3.143719        -0.815145
 C        -2.718758         2.348339         0.508372
 C        -1.216464         2.270136         1.264686
 H         1.159203         1.503618         0.225397
 H        -1.714768        -1.059207         0.500857
 H        -1.995803        -0.210470         2.109946
 H        -3.641680         0.194513        -0.352432
 H        -1.383154         0.263187        -1.669004
 H        -1.947815         3.994569        -0.643729
 H        -3.575547         3.356889        -1.349700
 H        -3.565001         2.824429         1.211253
 H        -0.614800         3.148378         0.888475
 H        -1.181119         2.120613         2.284271
