19
Iteration:  1673charge 0 multiplicity 1
 O         0.581504         0.729205         0.512573
 C        -0.762374         0.975466         0.475947
 C        -1.796058        -0.062032         0.977174
 C        -2.884962         0.781412         0.059488
 C        -1.537576         1.038592        -0.851611
 O        -1.614767         2.305836        -1.540888
 C        -2.560293         3.109900        -0.814826
 C        -2.711728         2.316938         0.560662
 C        -1.252972         2.248088         1.179079
 H         0.912369         0.827794         1.423418
 H        -1.660508        -1.027620         0.587041
 H        -1.848540        -0.059609         2.095448
 H        -3.751658         0.307800        -0.341245
 H        -1.162026         0.198036        -1.456665
 H        -2.100381         4.086219        -0.640910
 H        -3.425575         3.237580        -1.502772
 H        -3.394700         2.714866         1.246399
 H        -0.511125         3.101088         1.032123
 H        -1.274154         1.974032         2.243485
