19
Iteration:   578charge 0 multiplicity 1
 O         0.677925         0.759505         0.542761
 C        -0.767008         0.995225         0.448763
 C        -1.934256        -0.009351         0.981348
 C        -2.810401         0.846303         0.041215
 C        -1.533880         0.953976        -0.820676
 O        -1.638555         2.214630        -1.563926
 C        -2.482073         3.071077        -0.775774
 C        -2.711260         2.351793         0.582608
 C        -1.325576         2.206987         1.215030
 H         1.274376         1.501937         0.251561
 H        -1.674602        -0.980803         0.607416
 H        -2.074969        -0.015415         2.092088
 H        -3.810685         0.466131        -0.399811
 H        -1.311717         0.179532        -1.614383
 H        -2.053674         4.125453        -0.714928
 H        -3.490651         3.191510        -1.271698
 H        -3.565375         2.763844         1.132993
 H        -0.674126         3.121501         1.162623
 H        -1.290829         1.882160         2.295033
