19
Iteration:  3660charge 0 multiplicity 1
 O         0.597121         0.699200         0.584018
 C        -0.758955         0.948143         0.485982
 C        -1.806059        -0.086921         0.977602
 C        -2.722538         0.850835         0.022589
 C        -1.603971         1.028068        -0.858070
 O        -1.656101         2.250776        -1.555249
 C        -2.544956         3.087554        -0.789783
 C        -2.704973         2.329432         0.557498
 C        -1.279182         2.293849         1.211591
 H         1.178255         1.442330         0.325391
 H        -1.854603        -1.038135         0.445238
 H        -2.152422        -0.145966         2.074239
 H        -3.667284         0.447586        -0.101689
 H        -1.341503         0.358697        -1.704393
 H        -1.925414         4.021032        -0.599701
 H        -3.575213         3.202869        -1.283128
 H        -3.531496         2.495923         1.280375
 H        -0.666452         3.174511         0.853638
 H        -1.288720         2.244030         2.234086
