19
Iteration:  3255charge 0 multiplicity 1
 O         0.689203         0.535836         0.591658
 C        -0.703710         0.947487         0.557390
 C        -1.809160         0.004581         0.945444
 C        -2.738915         0.822702         0.042836
 C        -1.489534         1.082173        -0.841365
 O        -1.774862         2.329738        -1.548141
 C        -2.688261         3.087475        -0.735120
 C        -2.700562         2.327043         0.506611
 C        -1.260426         2.286547         1.137796
 H         1.211226         1.311024         0.432034
 H        -1.638737        -0.965429         0.299516
 H        -1.888477        -0.376230         1.969528
 H        -3.693674         0.520849        -0.372207
 H        -1.272548         0.354185        -1.563570
 H        -2.423494         4.240185        -0.711095
 H        -3.679983         3.143852        -1.211012
 H        -3.432063         2.684518         1.229759
 H        -0.522007         3.111897         0.944283
 H        -1.419892         2.242150         2.199055
