19
Iteration:  1925
 O         0.631692         0.585228         0.751135
 C        -0.744559         1.045979         0.532961
 C        -1.811388         0.023585         0.838969
 C        -2.841520         0.768135         0.042992
 C        -1.519073         1.034319        -0.902051
 O        -1.756196         2.339359        -1.570552
 C        -2.645339         3.077138        -0.760820
 C        -2.658733         2.256128         0.574182
 C        -1.179393         2.311376         1.165151
 H         1.145619         0.923785        -0.004037
 H        -1.464373        -0.958061         0.475615
 H        -1.866076        -0.137500         1.919147
 H        -3.694223         0.464648        -0.527416
 H        -1.188248         0.288082        -1.667116
 H        -2.148675         4.120693        -0.633318
 H        -3.735531         3.106349        -1.277796
 H        -3.323062         2.579961         1.338711
 H        -0.673086         3.118696         0.701633
 H        -1.082945         2.316320         2.171436
