19
Iteration:  1222
 O         0.646383         0.846695         0.554742
 C        -0.810654         1.007673         0.521372
 C        -1.830222        -0.073201         1.009012
 C        -2.781447         0.763565         0.030844
 C        -1.582457         1.085177        -0.910274
 O        -1.645794         2.191431        -1.637165
 C        -2.451450         3.195728        -0.802605
 C        -2.703169         2.318379         0.572049
 C        -1.378901         2.162707         1.283561
 H         0.765150        -0.151090         0.478404
 H        -1.543840        -0.991861         0.554471
 H        -2.037344        -0.360500         2.103424
 H        -3.702662         0.362401        -0.387247
 H        -1.342657         0.354005        -1.621559
 H        -1.633084         3.846251        -0.576447
 H        -3.279187         3.794709        -1.124379
 H        -3.451385         2.877272         1.098267
 H        -0.721740         3.132389         1.168051
 H        -1.421548         1.831994         2.445576
