19
Iteration:  2650charge 0 multiplicity 1
 O         0.624611         0.607936         0.621838
 C        -0.700492         0.972864         0.498183
 C        -1.843094        -0.009896         0.983171
 C        -2.803645         0.761799         0.129979
 C        -1.537308         1.008457        -0.916845
 O        -1.635733         2.358553        -1.521742
 C        -2.654349         3.093233        -0.847695
 C        -2.720446         2.269178         0.529729
 C        -1.217195         2.351825         1.166488
 H         1.095777         1.280434         0.057633
 H        -1.516932        -1.019245         0.480832
 H        -2.212609        -0.186242         2.126820
 H        -3.767099         0.333079        -0.063730
 H        -1.344975         0.254891        -1.604943
 H        -2.248986         4.203606        -0.734811
 H        -3.586689         3.080521        -1.454577
 H        -3.490726         2.626163         1.167104
 H        -0.480196         3.196540         0.964902
 H        -1.366041         2.212695         2.220015
