19
Iteration:  4077
 O         0.607006         0.633604         0.563780
 C        -0.706027         0.977414         0.555853
 C        -1.874692         0.037881         0.962496
 C        -2.751016         0.797179        -0.002082
 C        -1.590418         1.034880        -0.911435
 O        -1.677851         2.270911        -1.508711
 C        -2.521937         3.058430        -0.795844
 C        -2.677617         2.356696         0.597843
 C        -1.251985         2.250573         1.160552
 H         1.069388         1.456451         0.477454
 H        -1.805800        -1.022943         0.577134
 H        -2.108927         0.031388         2.034223
 H        -3.661254         0.209205        -0.305547
 H        -1.212377         0.364829        -1.709840
 H        -2.074537         4.096102        -0.716130
 H        -3.704137         3.156590        -1.137174
 H        -3.645631         2.396527         1.207079
 H        -0.731377         3.080132         0.822358
 H        -1.321242         2.416267         2.333982
