19
Iteration:  1610
 O         0.623431         0.572029         0.577533
 C        -0.779444         0.974746         0.521636
 C        -1.801133        -0.018676         1.000120
 C        -2.740492         0.837344         0.021064
 C        -1.507618         1.023057        -0.924906
 O        -1.640747         2.360562        -1.544005
 C        -2.622720         3.059121        -0.767431
 C        -2.725804         2.273178         0.578763
 C        -1.271088         2.364838         1.105579
 H         0.904144         0.529437         1.534783
 H        -1.716229        -0.998286         0.447173
 H        -1.890931         0.023983         2.123660
 H        -3.581141         0.487347        -0.452417
 H        -1.231227         0.395427        -1.773597
 H        -2.410302         4.096036        -0.680630
 H        -3.696220         3.073959        -1.188947
 H        -3.528446         2.629916         1.230320
 H        -0.795157         3.224921         0.862145
 H        -1.211055         2.269566         2.210939
