19
Iteration:  1873
 O         0.618766         0.696170         0.483721
 C        -0.773311         1.050875         0.459253
 C        -1.903458        -0.022375         0.940253
 C        -2.765141         0.760666         0.064719
 C        -1.596847         1.004632        -0.870917
 O        -1.604461         2.291353        -1.518140
 C        -2.556685         3.020624        -0.725228
 C        -2.652004         2.315233         0.576984
 C        -1.267629         2.291048         1.168036
 H         1.057447         1.390935         1.054301
 H        -1.930586        -1.155847         0.676846
 H        -2.201158         0.053167         1.961472
 H        -3.752656         0.556250        -0.328764
 H        -1.089730         0.349321        -1.605758
 H        -2.216825         4.012432        -0.626014
 H        -3.478755         2.980970        -1.281939
 H        -3.517679         2.643557         1.245646
 H        -0.529114         3.252923         1.092942
 H        -1.203752         1.883715         2.270533
