19
Iteration:   658
 O         0.540060         0.504470         0.740744
 C        -0.708089         0.943353         0.475880
 C        -1.811966         0.020247         1.032485
 C        -2.677851         0.762757         0.028218
 C        -1.475242         1.128406        -0.910922
 O        -1.741298         2.370888        -1.613042
 C        -2.706078         3.078553        -0.806946
 C        -2.662900         2.309825         0.574433
 C        -1.210311         2.317222         1.101524
 H         1.269989         1.086056         0.361024
 H        -1.775357        -1.066265         0.777764
 H        -1.977939         0.214023         2.117937
 H        -3.501776         0.174749        -0.492610
 H        -1.249217         0.595821        -1.818651
 H        -2.369377         4.113045        -0.690226
 H        -3.783068         3.006277        -1.234892
 H        -3.310033         2.670968         1.257895
 H        -0.629884         3.200209         0.782505
 H        -1.244343         2.088768         2.236307
