19
Iteration:  4313
 O         0.593347         0.600085         0.645326
 C        -0.795042         1.000019         0.505062
 C        -1.814582         0.000076         0.969272
 C        -2.786299         0.811469         0.021899
 C        -1.528739         1.096381        -0.893310
 O        -1.633922         2.352167        -1.505271
 C        -2.610792         3.050282        -0.787763
 C        -2.726896         2.258570         0.555367
 C        -1.148896         2.248690         1.177291
 H         1.134469         1.111271        -0.003343
 H        -1.500990        -1.038203         0.620634
 H        -2.047398         0.047827         2.070507
 H        -3.776809         0.500548        -0.399342
 H        -1.456436         0.246174        -1.704493
 H        -2.447093         4.180578        -0.928745
 H        -3.645525         3.009411        -1.212466
 H        -3.654337         2.554507         1.141015
 H        -0.563317         3.090817         0.713914
 H        -1.271440         2.290695         2.170004
