19
Iteration:  1302charge 0 multiplicity 1
 O         0.578012         0.592877         0.690122
 C        -0.773421         0.980036         0.463580
 C        -1.821199         0.020250         0.926338
 C        -2.747404         0.846156        -0.009019
 C        -1.504973         1.038847        -0.847094
 O        -1.550812         2.402717        -1.460103
 C        -2.701752         3.047434        -0.807276
 C        -2.741226         2.250311         0.592340
 C        -1.203070         2.366501         1.066020
 H         0.657328        -0.234019         0.145708
 H        -1.532595        -0.924206         0.544921
 H        -2.098483         0.115310         1.966304
 H        -3.737070         0.338788        -0.217441
 H        -1.232072         0.241177        -1.623128
 H        -2.516666         4.135684        -0.898301
 H        -3.684408         2.674505        -1.211501
 H        -3.536150         2.531763         1.239121
 H        -0.621403         3.286145         0.810023
 H        -1.028452         2.138957         2.225418
