19
Iteration:   358charge 0 multiplicity 1
 O         0.533250         0.447538         0.582404
 C        -0.726442         1.008385         0.598669
 C        -1.890804         0.056891         1.014053
 C        -2.732114         0.823806        -0.023670
 C        -1.490544         1.096348        -0.908496
 O        -1.574795         2.379024        -1.501196
 C        -2.796135         2.953217        -0.784113
 C        -2.675468         2.225044         0.518502
 C        -1.138526         2.479276         1.129126
 H         1.328637         1.027531         0.743743
 H        -1.623179        -1.017305         0.581107
 H        -2.161222         0.053660         2.059134
 H        -3.627710         0.410038        -0.403402
 H        -1.198058         0.275802        -1.499385
 H        -2.488123         4.070098        -0.602302
 H        -3.702963         2.653025        -1.347935
 H        -3.519337         2.471039         1.149255
 H        -0.575522         3.391013         0.545649
 H        -1.183831         2.538979         2.220558
