19
Iteration:  4180charge 0 multiplicity 1
 O         0.592996         0.530038         0.688831
 C        -0.782328         1.022890         0.456213
 C        -1.781271         0.033622         0.959865
 C        -2.743486         0.809861         0.038655
 C        -1.525645         1.056904        -0.892234
 O        -1.610154         2.302153        -1.539518
 C        -2.654180         3.133104        -0.756254
 C        -2.699289         2.285015         0.603801
 C        -1.253648         2.311602         1.073759
 H         1.089302         1.282475         0.232389
 H        -1.681773        -0.930490         0.467312
 H        -2.242534        -0.175600         1.952831
 H        -3.666252         0.329489        -0.212932
 H        -1.261415         0.225963        -1.565174
 H        -2.558049         4.259140        -0.665947
 H        -3.732400         2.848769        -1.238034
 H        -3.470928         2.485406         1.261326
 H        -0.719537         3.257143         0.827484
 H        -1.016196         2.082729         2.024251
