19
Iteration:  1918charge 0 multiplicity 1
 O         0.597237         0.595892         0.746288
 C        -0.780671         0.995073         0.503404
 C        -1.795779        -0.114026         0.891455
 C        -2.770757         0.779226         0.056194
 C        -1.477852         1.107687        -0.929800
 O        -1.779459         2.315151        -1.580753
 C        -2.653285         3.106352        -0.716506
 C        -2.632864         2.303884         0.525705
 C        -1.184382         2.326509         1.144147
 H         1.187887         1.054855         0.075231
 H        -1.456290        -1.129579         0.477011
 H        -1.993689        -0.138836         1.959160
 H        -3.768009         0.443779        -0.277509
 H        -1.267238         0.286146        -1.621149
 H        -2.183120         4.045492        -0.717202
 H        -3.549921         3.227292        -1.308313
 H        -3.426581         2.645646         1.288167
 H        -0.680798         3.325059         0.750281
 H        -1.220890         2.420562         2.310018
