19
Iteration:  4414charge 0 multiplicity 1
 O         0.556325         0.679128         0.593878
 C        -0.782650         0.995006         0.454571
 C        -1.855709        -0.029372         0.941204
 C        -2.774690         0.819556         0.058883
 C        -1.453938         1.028115        -0.911038
 O        -1.640581         2.195420        -1.527557
 C        -2.567676         3.116808        -0.722178
 C        -2.680314         2.311663         0.556456
 C        -1.302932         2.295931         1.179849
 H         1.164293         1.283675         0.169192
 H        -1.761566        -1.023848         0.518732
 H        -1.915383        -0.210202         2.021319
 H        -3.731822         0.654249        -0.344591
 H        -1.209069         0.268187        -1.596642
 H        -2.130008         4.039374        -0.278842
 H        -3.413460         3.216250        -1.322551
 H        -3.520042         2.735996         1.226098
 H        -0.662525         3.206671         0.925570
 H        -1.276536         2.196135         2.201514
