19
Iteration:  2527charge 0 multiplicity 1
 O         0.626786         0.589006         0.693974
 C        -0.731935         1.037459         0.468479
 C        -1.878497        -0.043669         0.966981
 C        -2.776126         0.851063         0.108681
 C        -1.508820         1.064565        -0.875600
 O        -1.640735         2.356171        -1.536518
 C        -2.756996         3.059225        -0.767010
 C        -2.656727         2.237743         0.499024
 C        -1.167344         2.316537         1.046948
 H         1.370372         1.215062         0.430992
 H        -1.626244        -1.209489         0.708605
 H        -2.054738        -0.142271         2.089865
 H        -3.789529         0.492075        -0.284350
 H        -1.418502         0.283100        -1.662276
 H        -2.395941         4.099017        -0.881008
 H        -3.650183         2.866014        -1.255918
 H        -3.432177         2.366391         1.261547
 H        -0.751385         3.267385         0.756803
 H        -1.126280         2.184232         2.222560
