19
Iteration:   944charge 0 multiplicity 1
 O         0.574827         0.667433         0.524882
 C        -0.775433         0.998095         0.552695
 C        -1.852953        -0.085188         1.035089
 C        -2.696339         0.758601         0.050856
 C        -1.497940         1.046758        -0.926352
 O        -1.686372         2.322766        -1.715540
 C        -2.531723         3.132783        -0.805438
 C        -2.652175         2.326805         0.619893
 C        -1.347133         2.253033         1.232060
 H         1.139034         1.038486         1.185341
 H        -1.771759        -1.146026         0.661933
 H        -1.978780        -0.116257         2.038696
 H        -3.681696         0.623388        -0.381756
 H        -1.276588         0.091248        -1.453077
 H        -2.088854         4.102213        -0.487347
 H        -3.513577         3.436855        -1.312176
 H        -3.507088         2.564354         1.225284
 H        -0.687848         3.221374         1.349021
 H        -1.420975         1.987954         2.377157
