19
Iteration:  3266charge 0 multiplicity 1
 O         0.726112         0.494385         0.608296
 C        -0.743972         1.055458         0.459034
 C        -1.847806        -0.040172         0.954170
 C        -2.760960         0.849892         0.114562
 C        -1.508746         1.044490        -0.974982
 O        -1.673694         2.331235        -1.565210
 C        -2.735190         3.099738        -0.722878
 C        -2.665825         2.267472         0.572595
 C        -1.302367         2.359868         1.179054
 H         1.283195         1.266220         0.456926
 H        -1.620781        -1.049305         0.371659
 H        -2.142118        -0.173149         2.018344
 H        -3.705472         0.408113        -0.157796
 H        -1.176785         0.344853        -1.682999
 H        -2.205256         4.153157        -0.560385
 H        -3.726883         2.996325        -1.170201
 H        -3.485355         2.367669         1.283153
 H        -0.845190         3.328582         0.796223
 H        -1.249810         2.320501         2.249964
