19
Iteration:  1417charge 0 multiplicity 1
 O         0.679910         0.679594         0.584752
 C        -0.786375         1.014094         0.562476
 C        -1.948104         0.000339         0.965894
 C        -2.784887         0.781419         0.020695
 C        -1.490756         1.043847        -0.863467
 O        -1.607033         2.281964        -1.552420
 C        -2.577268         3.091103        -0.732969
 C        -2.723381         2.257094         0.487904
 C        -1.259785         2.304979         1.230248
 H         0.856556         0.600090        -0.373755
 H        -1.897958        -0.975914         0.509318
 H        -2.116578         0.059665         1.995656
 H        -3.710644         0.457992        -0.473518
 H        -1.273360         0.237767        -1.518601
 H        -2.047891         4.071324        -0.611559
 H        -3.533354         3.117396        -1.368920
 H        -3.412992         2.586354         1.295497
 H        -0.654649         3.201696         1.017892
 H        -1.340541         2.163184         2.240366
