19
Iteration:  2209charge 0 multiplicity 1
 O         0.645585         0.537384         0.631022
 C        -0.712091         1.036314         0.506302
 C        -1.817476        -0.061463         0.989425
 C        -2.749624         0.828664         0.052779
 C        -1.520584         1.081037        -0.890901
 O        -1.718893         2.262390        -1.537549
 C        -2.710443         3.056221        -0.753080
 C        -2.655567         2.348281         0.521568
 C        -1.265402         2.334619         1.117018
 H         1.302840         1.286645         0.545211
 H        -1.504444        -1.047166         0.482057
 H        -1.932200        -0.176764         2.010910
 H        -3.673078         0.607319        -0.469478
 H        -1.127737         0.250656        -1.524028
 H        -2.389094         4.132767        -0.745633
 H        -3.765683         3.231908        -1.200950
 H        -3.430498         2.690158         1.120007
 H        -0.716296         3.205751         0.753117
 H        -1.235488         2.347728         2.291969
