19
Iteration:  1421
 O         0.668117         0.662194         0.588196
 C        -0.767174         1.052002         0.579656
 C        -1.934676        -0.003831         0.944353
 C        -2.797006         0.789426         0.002343
 C        -1.503064         1.080797        -0.866607
 O        -1.579862         2.276016        -1.541300
 C        -2.595378         3.056564        -0.750833
 C        -2.753340         2.266212         0.527497
 C        -1.234990         2.297455         1.188267
 H         0.837505         0.637369        -0.363490
 H        -1.939557        -1.026823         0.545188
 H        -2.113291         0.176442         2.132484
 H        -3.784821         0.480728        -0.455154
 H        -1.270144         0.199520        -1.503989
 H        -2.116558         4.011234        -0.607887
 H        -3.473655         3.134939        -1.357699
 H        -3.526105         2.457654         1.266834
 H        -0.585947         3.187782         1.063779
 H        -1.223337         2.086152         2.310493
