19
Iteration:  1849charge 0 multiplicity 1
 O         0.599894         0.741387         0.352275
 C        -0.796740         0.911630         0.596133
 C        -1.814749        -0.084726         1.017619
 C        -2.802076         0.840670         0.050348
 C        -1.542938         1.103718        -0.783594
 O        -1.529670         2.266387        -1.504927
 C        -2.622536         3.105919        -0.772276
 C        -2.733878         2.290950         0.520235
 C        -1.287557         2.235693         1.177368
 H         1.011059         0.898752         1.262847
 H        -1.684307        -1.146102         0.658413
 H        -2.027577        -0.129832         2.090275
 H        -3.770912         0.611297        -0.275940
 H        -1.289419         0.383364        -1.598923
 H        -2.227792         4.120237        -0.600659
 H        -3.492020         3.110371        -1.509060
 H        -3.550133         2.631851         1.118360
 H        -0.539539         3.002778         0.621213
 H        -1.162138         2.364013         2.272860
