19
Iteration:  4442charge 0 multiplicity 1
 O         0.615755         0.597005         0.612585
 C        -0.744377         1.008979         0.535798
 C        -1.866836        -0.048128         0.993754
 C        -2.773431         0.751943         0.031960
 C        -1.543421         1.084022        -0.884655
 O        -1.591918         2.300520        -1.602324
 C        -2.683992         3.157280        -0.787089
 C        -2.672314         2.267298         0.558981
 C        -1.231436         2.309936         1.205342
 H         1.151772         1.124884        -0.024461
 H        -1.576769        -1.103309         0.689470
 H        -2.141593         0.021907         2.078491
 H        -3.826795         0.592192        -0.388174
 H        -1.362847         0.262964        -1.742268
 H        -2.321172         4.148480        -0.388784
 H        -3.508448         3.053520        -1.599225
 H        -3.439061         2.612114         1.237636
 H        -0.594234         3.188878         1.004985
 H        -1.386225         2.176121         2.393928
