19
Iteration:   256
 O         0.590899         0.699417         0.385672
 C        -0.744140         0.992944         0.538504
 C        -1.806305        -0.044109         1.010481
 C        -2.808685         0.752874         0.049369
 C        -1.541052         1.049690        -0.846850
 O        -1.615327         2.262164        -1.585688
 C        -2.445554         3.085420        -0.802587
 C        -2.770424         2.327433         0.531078
 C        -1.358675         2.300275         1.339006
 H         1.068301         0.717037         1.219685
 H        -1.780182        -1.072304         0.753286
 H        -1.914109        -0.063806         2.077854
 H        -3.760558         0.316962        -0.381800
 H        -1.131648         0.200851        -1.466353
 H        -2.039856         4.149087        -0.683108
 H        -3.434234         3.308426        -1.364089
 H        -3.544160         2.998251         1.057613
 H        -0.700282         3.135254         0.980632
 H        -1.490741         2.167218         2.440593
