19
Iteration:  3318charge 0 multiplicity 1
 O         0.743056         0.663004         0.551386
 C        -0.724172         0.939438         0.516772
 C        -1.875155        -0.123872         0.925477
 C        -2.796937         0.818166         0.065675
 C        -1.571398         1.059046        -0.852410
 O        -1.643547         2.349890        -1.543936
 C        -2.600130         3.016586        -0.756069
 C        -2.778815         2.306476         0.616388
 C        -1.226417         2.357617         1.189584
 H         1.073489         1.415155         0.084857
 H        -1.840290        -1.175508         0.452143
 H        -2.142364        -0.065106         1.979854
 H        -3.676061         0.325218        -0.448499
 H        -1.630734         0.318028        -1.615668
 H        -2.357685         4.141946        -0.662359
 H        -3.576322         3.048874        -1.331614
 H        -3.558197         2.576063         1.278636
 H        -0.586089         3.176264         0.743305
 H        -1.230477         2.366723         2.213960
