19
Iteration:  4785charge 0 multiplicity 1
 O         0.544934         0.550880         0.695641
 C        -0.740267         0.926063         0.497367
 C        -1.796901        -0.055947         0.946166
 C        -2.802531         0.831762         0.028262
 C        -1.537712         1.039970        -0.855924
 O        -1.651306         2.390630        -1.576528
 C        -2.661527         3.133794        -0.717433
 C        -2.634714         2.300606         0.542832
 C        -1.177829         2.318051         1.034298
 H         1.157659         1.293862         0.572903
 H        -1.473603        -1.094551         0.560968
 H        -2.195772        -0.301465         1.935600
 H        -3.777509         0.386724        -0.172021
 H        -1.520618         0.137696        -1.514107
 H        -2.204485         4.128827        -0.547079
 H        -3.554483         3.040795        -1.317536
 H        -3.472505         2.794389         1.220564
 H        -0.572413         3.259869         0.737055
 H        -1.282931         2.174651         2.184695
