19
Iteration:  4366
 O         0.557642         0.616566         0.614653
 C        -0.767976         0.980824         0.481011
 C        -1.863444        -0.033920         0.931407
 C        -2.711786         0.814086         0.056149
 C        -1.516117         1.036417        -0.845632
 O        -1.644606         2.333398        -1.593752
 C        -2.665843         3.071262        -0.774503
 C        -2.663587         2.305476         0.614386
 C        -1.177264         2.282079         1.107497
 H         1.066830         1.452179         0.733063
 H        -1.737261        -1.110706         0.600559
 H        -2.046756        -0.125773         2.030078
 H        -3.751059         0.532863        -0.286070
 H        -1.184156         0.181168        -1.595978
 H        -2.184664         4.112505        -0.683926
 H        -3.665604         3.038949        -1.222291
 H        -3.480000         2.659528         1.236745
 H        -0.704326         3.303030         1.011524
 H        -1.344495         2.096596         2.267284
