19
Iteration:   731
 O         0.615638         0.674477         0.536043
 C        -0.780856         0.979821         0.456213
 C        -1.868222         0.008024         0.985229
 C        -2.771807         0.797257         0.053575
 C        -1.575190         1.024329        -0.920826
 O        -1.586617         2.290359        -1.520279
 C        -2.530314         3.065868        -0.716092
 C        -2.679290         2.308116         0.546596
 C        -1.308281         2.245333         1.183488
 H         1.123594         1.497716         0.596740
 H        -1.722325        -1.003189         0.783095
 H        -2.202200         0.270257         2.020605
 H        -3.752777         0.347582        -0.311324
 H        -1.311207         0.135756        -1.580785
 H        -2.116801         4.111464        -0.672211
 H        -3.407823         3.036762        -1.367544
 H        -3.569099         2.651062         1.192549
 H        -0.722267         3.141155         1.048159
 H        -1.428731         2.043102         2.250306
