19
Iteration:  2355charge 0 multiplicity 1
 O         0.588108         0.641506         0.576519
 C        -0.782840         0.974996         0.479113
 C        -1.799079        -0.033292         0.943117
 C        -2.799733         0.780256         0.027152
 C        -1.531305         1.027387        -0.812264
 O        -1.632115         2.313179        -1.494778
 C        -2.673742         3.045864        -0.790367
 C        -2.714309         2.337791         0.593994
 C        -1.170986         2.293007         1.104283
 H         0.970034         1.480847         0.809739
 H        -1.596757        -0.996881         0.634067
 H        -1.809555         0.039146         2.030013
 H        -3.761938         0.492790        -0.483924
 H        -1.131992         0.319724        -1.507500
 H        -2.272141         4.111662        -0.809973
 H        -3.712386         2.900482        -1.209556
 H        -3.556356         2.624499         1.262746
 H        -0.619207         3.137159         0.548610
 H        -0.960248         2.316017         2.152328
