19
Iteration:  4984
 O         0.604170         0.608692         0.613016
 C        -0.749858         0.967304         0.441704
 C        -1.880557         0.026740         0.935130
 C        -2.810273         0.837743         0.073630
 C        -1.530622         1.021969        -0.873916
 O        -1.607814         2.300549        -1.528689
 C        -2.637000         3.088509        -0.758512
 C        -2.680383         2.302547         0.531654
 C        -1.194575         2.257068         1.194880
 H         1.070629         1.451947         0.438018
 H        -1.726454        -0.916140         0.546780
 H        -2.368669        -0.223277         1.846683
 H        -3.777929         0.404719        -0.240505
 H        -1.227284         0.379058        -1.696122
 H        -2.218653         4.156195        -0.730261
 H        -3.521317         3.058958        -1.360107
 H        -3.458662         2.579167         1.267753
 H        -0.493758         3.137527         1.088962
 H        -1.234792         2.214552         2.229786
