19
Iteration:  2526
 O         0.631918         0.585190         0.690059
 C        -0.723257         1.039885         0.472016
 C        -1.878479        -0.049657         0.971645
 C        -2.785223         0.846899         0.105034
 C        -1.515128         1.067254        -0.865127
 O        -1.637833         2.361716        -1.536754
 C        -2.746214         3.065690        -0.774097
 C        -2.653833         2.235500         0.502033
 C        -1.174493         2.318201         1.042768
 H         1.341067         1.228590         0.438649
 H        -1.610851        -1.193677         0.726928
 H        -2.043947        -0.124037         2.066263
 H        -3.780000         0.495376        -0.301112
 H        -1.457409         0.246721        -1.650748
 H        -2.437516         4.091648        -0.885066
 H        -3.667047         2.869593        -1.275624
 H        -3.452327         2.345305         1.274520
 H        -0.800816         3.250728         0.754343
 H        -1.091132         2.173715         2.223910
