19
Iteration:  1354charge 0 multiplicity 1
 O         0.661637         0.816104         0.630641
 C        -0.808211         0.942265         0.476150
 C        -1.883478        -0.124968         0.929598
 C        -2.742397         0.872372         0.002711
 C        -1.577223         1.031739        -0.944401
 O        -1.680827         2.237726        -1.581658
 C        -2.542269         3.142361        -0.762568
 C        -2.673236         2.299738         0.587586
 C        -1.249044         2.267078         1.235365
 H         0.755308        -0.138734         0.936853
 H        -1.739238        -1.121020         0.496607
 H        -2.087959        -0.055869         2.135139
 H        -3.645563         0.410591        -0.482006
 H        -1.331192         0.254088        -1.617137
 H        -2.071110         4.107495        -0.545889
 H        -3.443663         3.285905        -1.302888
 H        -3.406050         2.775663         1.211530
 H        -0.461389         3.051632         0.974634
 H        -1.367560         2.227382         2.384989
