19
Iteration:   232charge 0 multiplicity 1
 O         0.588078         0.662036         0.516398
 C        -0.708736         0.989146         0.464569
 C        -1.883104         0.027116         1.004781
 C        -2.718399         0.839927         0.045970
 C        -1.558850         1.047101        -0.908075
 O        -1.545658         2.296139        -1.447260
 C        -2.639024         3.069361        -0.795283
 C        -2.712363         2.259348         0.578431
 C        -1.250476         2.305855         1.101785
 H         0.831958         0.389859         1.405589
 H        -1.814111        -0.898236         0.594428
 H        -2.090726        -0.118259         2.079980
 H        -3.753692         0.505229        -0.329961
 H        -1.362526         0.259255        -1.752455
 H        -2.515735         4.157417        -0.917281
 H        -3.651561         2.856161        -1.368930
 H        -3.393145         2.546588         1.414413
 H        -0.802644         3.231893         0.889927
 H        -1.282664         2.107359         2.240660
