19
Iteration:   421
 O         0.557186         0.799812         0.647193
 C        -0.807535         0.973643         0.517712
 C        -1.845399        -0.110013         0.884018
 C        -2.788520         0.804410         0.008736
 C        -1.539546         1.002628        -0.815854
 O        -1.676629         2.161539        -1.662218
 C        -2.477465         3.126443        -0.762332
 C        -2.699040         2.360033         0.616022
 C        -1.229015         2.291227         1.274953
 H         0.976023         1.233427        -0.139859
 H        -1.626585        -1.140540         0.498261
 H        -2.045760        -0.334197         1.878891
 H        -3.718703         0.535893        -0.386025
 H        -1.293169         0.194533        -1.452253
 H        -1.738369         3.995912        -0.748046
 H        -3.469083         3.434327        -1.235171
 H        -3.528836         2.873459         1.286929
 H        -0.565412         3.061189         0.799149
 H        -1.261748         2.199160         2.336900
