19
Iteration:   926charge 0 multiplicity 1
 O         0.617900         0.782997         0.430833
 C        -0.786184         0.984494         0.516520
 C        -1.839676        -0.003107         0.964286
 C        -2.818281         0.840695        -0.012989
 C        -1.551498         1.060516        -0.834455
 O        -1.697448         2.187734        -1.561948
 C        -2.399219         3.110703        -0.763194
 C        -2.703667         2.285722         0.497170
 C        -1.313209         2.220459         1.304584
 H         0.937060         0.703169         1.321938
 H        -1.665871        -1.062964         0.579592
 H        -2.086831        -0.125281         2.117005
 H        -3.722112         0.295451        -0.254946
 H        -1.104634         0.304607        -1.505440
 H        -1.824355         4.020827        -0.574452
 H        -3.342051         3.297848        -1.217059
 H        -3.651391         2.656657         1.069953
 H        -0.711326         3.174589         1.346088
 H        -1.432907         2.030332         2.410535
