19
Iteration:  3712
 O         0.580033         0.563301         0.645380
 C        -0.725164         0.960024         0.519870
 C        -1.853103         0.012195         1.016515
 C        -2.748374         0.822758         0.071956
 C        -1.498784         1.008913        -0.889460
 O        -1.650970         2.381108        -1.590048
 C        -2.705027         3.032731        -0.759516
 C        -2.654099         2.259113         0.513826
 C        -1.208935         2.324179         1.122727
 H         1.188631         1.283466         0.307818
 H        -1.478611        -0.875832         0.519650
 H        -2.037609        -0.011237         2.103644
 H        -3.686829         0.512245        -0.507379
 H        -1.503445         0.490756        -1.824174
 H        -2.561268         4.053978        -0.455765
 H        -3.700932         3.162591        -1.286196
 H        -3.337020         2.530709         1.293773
 H        -0.564996         3.134522         0.820365
 H        -1.276507         2.380009         2.267604
