19
Iteration:  4165charge 0 multiplicity 1
 O         0.568512         0.586722         0.646344
 C        -0.726930         0.973019         0.502034
 C        -1.860682        -0.046852         0.989598
 C        -2.723657         0.798650         0.028369
 C        -1.536215         1.029309        -0.925504
 O        -1.661370         2.382748        -1.522010
 C        -2.664369         3.020279        -0.751698
 C        -2.666799         2.292497         0.516214
 C        -1.221153         2.349503         1.135067
 H         1.277395         1.026330         0.194606
 H        -1.610829        -1.101191         0.752863
 H        -1.927681         0.023833         2.084557
 H        -3.709145         0.533584        -0.421952
 H        -1.296150         0.362603        -1.738186
 H        -2.196018         3.992221        -0.567382
 H        -3.615605         3.133312        -1.332310
 H        -3.481428         2.590967         1.230780
 H        -0.680436         3.223289         0.851523
 H        -1.295432         2.520239         2.303061
