19
Iteration:  3718
 O         0.629254         0.539570         0.647897
 C        -0.719581         1.000449         0.490298
 C        -1.855955         0.026923         1.037868
 C        -2.798602         0.815370         0.000578
 C        -1.492457         1.049893        -0.870027
 O        -1.654384         2.384794        -1.574172
 C        -2.698866         3.017316        -0.731303
 C        -2.689676         2.274377         0.537811
 C        -1.219727         2.313229         1.081834
 H         1.265145         1.223548         0.339825
 H        -1.663723        -0.981303         0.576403
 H        -2.093297        -0.134140         2.093808
 H        -3.712643         0.295685        -0.316931
 H        -1.254721         0.291818        -1.682720
 H        -2.418712         4.114472        -0.599149
 H        -3.660795         3.093654        -1.231571
 H        -3.350739         2.625394         1.368272
 H        -0.631117         3.211263         0.772250
 H        -1.195394         2.313770         2.209409
