19
Iteration:   867charge 0 multiplicity 1
 O         0.656618         0.685661         0.608418
 C        -0.739745         0.974257         0.448860
 C        -1.881618        -0.005439         0.981626
 C        -2.729935         0.868692         0.002067
 C        -1.529641         1.060840        -0.880367
 O        -1.571670         2.323376        -1.482687
 C        -2.704709         3.044266        -0.789418
 C        -2.694188         2.335211         0.550734
 C        -1.228807         2.271638         1.157887
 H         0.635786        -0.291582         0.634045
 H        -1.678786        -1.051618         0.579980
 H        -2.263996         0.015655         1.951949
 H        -3.634733         0.357815        -0.317457
 H        -1.451472         0.174338        -1.518378
 H        -2.468945         4.108847        -0.742426
 H        -3.643263         2.887633        -1.330374
 H        -3.487496         2.656487         1.192856
 H        -0.695207         3.238895         0.876065
 H        -1.372649         1.995080         2.279541
