19
Iteration:  4307
 O         0.607240         0.620113         0.644575
 C        -0.737985         0.939464         0.529565
 C        -1.842619         0.017434         0.919156
 C        -2.795398         0.814527        -0.011862
 C        -1.582404         1.078992        -0.917762
 O        -1.618556         2.322577        -1.506157
 C        -2.617513         3.038474        -0.777947
 C        -2.731106         2.287371         0.579164
 C        -1.162516         2.287066         1.171132
 H         0.990806         1.134837        -0.056960
 H        -1.600074        -0.962898         0.604410
 H        -1.934137         0.126444         1.983488
 H        -3.822762         0.558090        -0.236629
 H        -1.202281         0.328522        -1.532048
 H        -2.357061         4.074449        -0.748107
 H        -3.643342         2.869689        -1.297720
 H        -3.613991         2.587317         1.164449
 H        -0.629904         3.195555         0.890737
 H        -1.185953         2.259119         2.393778
