19
Iteration:  3925
 O         0.602302         0.639903         0.609002
 C        -0.802953         0.982849         0.514603
 C        -1.885475        -0.044963         1.001093
 C        -2.735910         0.777921         0.055083
 C        -1.497046         1.035407        -0.940891
 O        -1.690387         2.329147        -1.555506
 C        -2.559294         3.072188        -0.772713
 C        -2.673292         2.310775         0.510609
 C        -1.251484         2.284969         1.186115
 H         1.069603         1.402073         0.206128
 H        -1.691605        -1.087620         0.562787
 H        -1.970040        -0.095368         2.092433
 H        -3.827075         0.516311        -0.011119
 H        -1.207259         0.326078        -1.754166
 H        -2.154790         4.126352        -0.705427
 H        -3.609973         3.090044        -1.168598
 H        -3.518118         2.769432         1.115449
 H        -0.418954         3.173375         1.130664
 H        -1.215531         2.058533         2.301054
