19
Iteration:  1974charge 0 multiplicity 1
 O         0.604950         0.669162         0.492833
 C        -0.793925         0.980463         0.556250
 C        -1.805839        -0.046788         1.016673
 C        -2.762802         0.796113         0.052012
 C        -1.583088         1.071209        -0.808220
 O        -1.544582         2.361663        -1.486990
 C        -2.646075         3.064697        -0.776176
 C        -2.745231         2.295774         0.498991
 C        -1.212733         2.236372         1.149227
 H         1.024895         1.333181        -0.070929
 H        -1.596353        -1.046861         0.581572
 H        -2.183010        -0.211904         2.072327
 H        -3.753755         0.319183        -0.207069
 H        -1.306522         0.261401        -1.492785
 H        -2.363843         4.076408        -0.764834
 H        -3.520731         2.883835        -1.497530
 H        -3.595373         2.592797         1.210673
 H        -0.660578         3.181702         0.724092
 H        -1.226169         2.162756         2.363106
