19
Iteration:  1565charge 0 multiplicity 1
 O         0.544395         0.775485         0.413024
 C        -0.840698         0.960057         0.523856
 C        -1.872247        -0.110277         0.991144
 C        -2.803092         0.840493        -0.000983
 C        -1.495733         1.013434        -0.856976
 O        -1.488045         2.281049        -1.546396
 C        -2.575684         3.024393        -0.768952
 C        -2.659258         2.358760         0.614089
 C        -1.308336         2.263367         1.234140
 H         1.107314         0.919430         1.237569
 H        -1.532834        -1.188543         0.771046
 H        -2.254236        -0.019406         2.101856
 H        -3.745439         0.511833        -0.227418
 H        -1.232341         0.239319        -1.605584
 H        -2.369801         4.065252        -0.668821
 H        -3.595846         3.071522        -1.270451
 H        -3.481163         2.812835         1.115629
 H        -0.611762         2.877710         0.788872
 H        -1.337740         2.421816         2.319002
