19
Iteration:  4926charge 0 multiplicity 1
 O         0.573376         0.533729         0.660350
 C        -0.707081         0.943410         0.467425
 C        -1.767924        -0.007905         0.962143
 C        -2.760448         0.835353        -0.002980
 C        -1.585914         1.019961        -0.936409
 O        -1.701648         2.336194        -1.535025
 C        -2.583475         3.061178        -0.775489
 C        -2.675508         2.356234         0.560886
 C        -1.246658         2.368245         1.206248
 H         1.213237         1.224806         0.467126
 H        -1.608688        -1.059943         0.475896
 H        -2.183880         0.002933         1.995877
 H        -3.611430         0.488719        -0.594472
 H        -1.337935         0.137972        -1.597277
 H        -2.089936         4.008936        -0.526696
 H        -3.674859         3.040822        -1.170133
 H        -3.464496         2.703040         1.306607
 H        -0.698488         3.139775         0.765656
 H        -1.384132         2.290840         2.365297
