19
Iteration:  2392
 O         0.649821         0.541291         0.554675
 C        -0.771377         0.945260         0.463598
 C        -1.773603         0.024606         0.986477
 C        -2.793879         0.832018         0.047695
 C        -1.510867         1.072860        -0.857029
 O        -1.648828         2.336651        -1.504664
 C        -2.712236         3.057337        -0.827295
 C        -2.751689         2.330081         0.551725
 C        -1.200925         2.287941         1.200627
 H         1.012751         1.415842         0.643807
 H        -1.478146        -1.003888         0.774774
 H        -1.971369         0.095117         2.071174
 H        -3.673283         0.360343        -0.326620
 H        -0.972945         0.292405        -1.485289
 H        -2.620906         4.108678        -0.855248
 H        -3.611802         2.819275        -1.321706
 H        -3.648520         2.565619         1.241847
 H        -0.701715         3.099927         0.647277
 H        -0.991498         2.411564         2.292722
