19
Iteration:   415
 O         0.587089         0.774918         0.671608
 C        -0.749608         0.996081         0.545054
 C        -1.868163        -0.092780         0.852475
 C        -2.807784         0.831543         0.035101
 C        -1.580928         0.975984        -0.864770
 O        -1.681562         2.205600        -1.602042
 C        -2.481878         3.094646        -0.789023
 C        -2.668031         2.318658         0.623978
 C        -1.274796         2.293362         1.187612
 H         1.092566         1.110503        -0.065520
 H        -1.561994        -1.028444         0.371502
 H        -2.188934        -0.293953         1.958197
 H        -3.850071         0.448920        -0.245367
 H        -1.124770         0.111293        -1.466213
 H        -1.891555         4.017092        -0.729249
 H        -3.455660         3.415772        -1.173617
 H        -3.333762         2.861891         1.188061
 H        -0.621593         3.151348         0.922147
 H        -1.199941         2.322430         2.318887
