19
Iteration:   593charge 0 multiplicity 1
 O         0.596355         0.832643         0.499132
 C        -0.778891         0.913519         0.516977
 C        -1.837618        -0.080745         1.007075
 C        -2.810878         0.831382         0.135195
 C        -1.684502         1.017138        -0.925543
 O        -1.519094         2.243882        -1.527797
 C        -2.491800         3.087080        -0.871706
 C        -2.653342         2.304443         0.521565
 C        -1.275620         2.204374         1.295127
 H         0.733945         1.752180         0.250665
 H        -1.955699        -1.029510         0.478670
 H        -2.124293        -0.048425         2.080157
 H        -3.762746         0.424516        -0.190052
 H        -1.564950         0.122842        -1.513604
 H        -1.986744         4.028779        -0.701176
 H        -3.423620         3.194100        -1.573078
 H        -3.436676         2.629389         1.155010
 H        -0.708694         3.125411         1.189845
 H        -1.423200         2.065462         2.409905
