19
Iteration:  1864
 O         0.572218         0.729091         0.428836
 C        -0.795938         0.975071         0.485486
 C        -1.907138        -0.034036         1.014138
 C        -2.747897         0.832161         0.043155
 C        -1.520820         0.964369        -0.892649
 O        -1.585388         2.325171        -1.513970
 C        -2.563291         3.039592        -0.753521
 C        -2.669556         2.299857         0.596472
 C        -1.257952         2.265098         1.196218
 H         1.050343         1.299088         1.083305
 H        -1.725726        -1.062409         0.527650
 H        -2.139143        -0.052291         2.082090
 H        -3.678950         0.408117        -0.444477
 H        -1.309239         0.083172        -1.548645
 H        -2.244207         4.062428        -0.726439
 H        -3.501117         3.062030        -1.235808
 H        -3.525678         2.596063         1.315667
 H        -0.702048         3.261943         0.902314
 H        -1.276293         2.186405         2.400635
