19
Iteration:  3549
 O         0.693079         0.544543         0.610721
 C        -0.688035         1.007894         0.490001
 C        -1.892772        -0.011468         0.980865
 C        -2.785941         0.848452         0.013370
 C        -1.514449         1.067390        -0.862527
 O        -1.714982         2.331719        -1.495424
 C        -2.670836         3.093452        -0.785451
 C        -2.694121         2.203875         0.535286
 C        -1.224602         2.317894         1.119806
 H         1.223537         1.347974         0.575314
 H        -1.638421        -1.015627         0.505326
 H        -2.204088         0.027515         2.059432
 H        -3.728254         0.400446        -0.368100
 H        -1.322205         0.313916        -1.575827
 H        -2.201416         4.087620        -0.580861
 H        -3.612997         3.263886        -1.264865
 H        -3.435283         2.501899         1.276750
 H        -0.751441         3.297007         0.733443
 H        -1.145587         2.236406         2.172933
