19
Iteration:  4394
 O         0.643369         0.680876         0.620030
 C        -0.740771         0.975889         0.510177
 C        -1.845152        -0.040090         0.935965
 C        -2.778665         0.820756         0.054177
 C        -1.657399         0.997312        -0.875315
 O        -1.625502         2.322449        -1.581458
 C        -2.551211         3.100328        -0.802320
 C        -2.692208         2.308115         0.584506
 C        -1.241614         2.211497         1.195415
 H         1.063912         1.532653         0.476163
 H        -1.723351        -0.997428         0.491459
 H        -2.033457        -0.170391         2.001503
 H        -3.724721         0.429906        -0.265935
 H        -1.439534         0.269978        -1.547462
 H        -2.037939         4.022051        -0.740284
 H        -3.547138         3.099566        -1.332183
 H        -3.531639         2.804784         1.120751
 H        -0.783150         3.160745         0.970282
 H        -1.258292         2.123542         2.251424
