19
Iteration:  3422
 O         0.607204         0.569309         0.622869
 C        -0.708396         0.929552         0.496122
 C        -1.822269         0.007689         0.935681
 C        -2.741200         0.767687         0.153744
 C        -1.572251         1.128553        -0.880057
 O        -1.614662         2.389149        -1.548780
 C        -2.785659         3.054701        -0.812643
 C        -2.676495         2.283140         0.515200
 C        -1.157447         2.268664         1.134757
 H         1.018472         1.455417         0.519414
 H        -1.728768        -0.915217         0.466290
 H        -2.030947        -0.315266         1.973097
 H        -3.735996         0.410780        -0.031596
 H        -1.290369         0.398027        -1.748193
 H        -2.508439         4.127404        -0.568299
 H        -3.728640         2.958128        -1.481659
 H        -3.399890         2.736545         1.303010
 H        -0.591986         3.083963         0.880039
 H        -1.132747         2.259199         2.262427
