19
Iteration:  1924
 O         0.629327         0.586785         0.750159
 C        -0.754957         1.040824         0.531112
 C        -1.808235         0.001180         0.838618
 C        -2.835679         0.767480         0.048825
 C        -1.508141         1.042656        -0.907397
 O        -1.762429         2.338307        -1.570913
 C        -2.649028         3.080949        -0.754473
 C        -2.653907         2.263435         0.566235
 C        -1.175019         2.316031         1.162917
 H         1.138163         0.932468         0.024534
 H        -1.464282        -0.952313         0.500856
 H        -1.873966        -0.136202         1.948310
 H        -3.724851         0.457518        -0.511419
 H        -1.203410         0.284947        -1.661293
 H        -2.126763         4.122648        -0.655650
 H        -3.698106         3.117367        -1.289167
 H        -3.308392         2.580626         1.314998
 H        -0.706099         3.116161         0.724370
 H        -1.105620         2.340646         2.188622
