19
Iteration:  2510charge 0 multiplicity 1
 O         0.644864         0.578682         0.607166
 C        -0.753836         0.931414         0.485636
 C        -1.790529         0.018653         0.993182
 C        -2.747098         0.776919         0.028838
 C        -1.587079         1.024294        -0.878232
 O        -1.611457         2.370020        -1.505406
 C        -2.665406         3.029260        -0.824435
 C        -2.761394         2.307165         0.612498
 C        -1.247738         2.334575         1.120433
 H         1.212689         1.404624         0.507293
 H        -1.675552        -0.953511         0.681696
 H        -2.068892         0.003410         2.050532
 H        -3.662227         0.379288        -0.360179
 H        -1.244288         0.333174        -1.644073
 H        -2.348370         4.096828        -0.630985
 H        -3.658346         2.871269        -1.432559
 H        -3.464415         2.815873         1.290437
 H        -0.614333         3.115895         0.576945
 H        -1.189386         2.497991         2.154386
