19
Iteration:  4423
 O         0.557605         0.646637         0.597609
 C        -0.766496         1.010466         0.516967
 C        -1.843089        -0.024286         0.966208
 C        -2.738779         0.822814         0.022295
 C        -1.535082         1.008550        -0.875479
 O        -1.657500         2.304408        -1.550018
 C        -2.534131         3.062468        -0.718837
 C        -2.696969         2.290042         0.559952
 C        -1.282427         2.250177         1.192372
 H         0.976442         1.280007         0.003267
 H        -1.678745        -0.979533         0.413115
 H        -1.975997        -0.056256         2.077822
 H        -3.669211         0.389250        -0.331092
 H        -1.073990         0.301297        -1.633951
 H        -1.958680         4.089087        -0.806978
 H        -3.450283         3.224806        -1.256172
 H        -3.585510         2.775203         1.056272
 H        -0.837219         3.215358         0.726703
 H        -1.204158         2.312858         2.308197
