19
Iteration:  1996charge 0 multiplicity 1
 O         0.608306         0.700370         0.461828
 C        -0.754736         0.967075         0.412830
 C        -1.851263        -0.017158         0.959519
 C        -2.811724         0.819570         0.006467
 C        -1.516339         0.938949        -0.845551
 O        -1.590891         2.297406        -1.470377
 C        -2.539971         2.974338        -0.729176
 C        -2.702304         2.316895         0.651344
 C        -1.338879         2.377539         1.184596
 H         1.237278         1.458550         0.391415
 H        -1.941134        -0.975240         0.476966
 H        -1.987182        -0.190721         2.065706
 H        -3.810871         0.407096        -0.267790
 H        -1.005650         0.237073        -1.482176
 H        -2.128281         3.948698        -0.608639
 H        -3.508946         3.033652        -1.365701
 H        -3.546397         2.772883         1.252306
 H        -0.874955         3.408435         0.901110
 H        -1.344338         2.222524         2.364527
