19
Iteration:   128charge 0 multiplicity 1
 O         0.598451         0.893322         0.331926
 C        -0.806464         1.028730         0.527211
 C        -1.961415        -0.121212         0.944359
 C        -2.887013         0.835252         0.007173
 C        -1.583086         0.944675        -0.745685
 O        -1.518007         2.155889        -1.446805
 C        -2.411987         3.087646        -0.751089
 C        -2.682731         2.314102         0.542944
 C        -1.304720         2.273693         1.207887
 H         1.040860         1.231407         1.147157
 H        -1.609298        -1.056550         0.239619
 H        -2.216243        -0.335570         2.009276
 H        -3.689629         0.485713        -0.590337
 H        -1.333419         0.166108        -1.402152
 H        -1.765315         3.948192        -0.513012
 H        -3.500053         3.172574        -1.312290
 H        -3.294665         2.687070         1.369541
 H        -0.659848         3.247827         1.065847
 H        -1.427187         2.130381         2.296428
