19
Iteration:  3138charge 0 multiplicity 1
 O         0.635652         0.584342         0.653089
 C        -0.719519         0.924460         0.489579
 C        -1.821524        -0.056306         0.976151
 C        -2.718646         0.791874         0.095961
 C        -1.520889         1.081384        -0.939110
 O        -1.663141         2.417178        -1.564107
 C        -2.729554         3.071235        -0.713521
 C        -2.657628         2.320844         0.561387
 C        -1.254777         2.260562         1.079398
 H         1.158594         1.254587         0.141442
 H        -1.638857        -1.038351         0.579971
 H        -1.992460        -0.117801         2.052706
 H        -3.705827         0.449681        -0.177926
 H        -1.444283         0.280399        -1.734316
 H        -2.463730         4.064436        -0.442001
 H        -3.691693         3.166897        -1.357272
 H        -3.519426         2.673123         1.226694
 H        -0.603753         3.061529         0.745904
 H        -1.400640         2.268280         2.219012
