19
Iteration:  3599
 O         0.701710         0.586388         0.620196
 C        -0.688051         0.948273         0.508848
 C        -1.848864        -0.096722         0.908410
 C        -2.783574         0.822314         0.051139
 C        -1.563331         1.083734        -0.800945
 O        -1.656641         2.314365        -1.525517
 C        -2.699742         3.067732        -0.780460
 C        -2.696549         2.366559         0.560096
 C        -1.246788         2.344219         1.112961
 H         1.270183         1.238665         0.191094
 H        -1.810557        -1.114534         0.507596
 H        -2.111798        -0.189032         1.936624
 H        -3.751286         0.390446        -0.363169
 H        -1.237328         0.274204        -1.508500
 H        -2.476672         4.103478        -0.631916
 H        -3.669280         3.124752        -1.394762
 H        -3.535335         2.732967         1.178239
 H        -0.566544         3.121016         0.852199
 H        -1.321612         2.287608         2.274786
