19
Iteration:  1003
 O         0.561637         0.587708         0.715596
 C        -0.746189         0.990520         0.582092
 C        -1.877674        -0.034829         0.960090
 C        -2.776448         0.734976         0.040244
 C        -1.538619         1.119784        -0.958122
 O        -1.569353         2.465703        -1.514868
 C        -2.725005         3.037307        -0.815586
 C        -2.643150         2.259453         0.536062
 C        -1.176903         2.292403         1.113202
 H         1.071126         0.559749        -0.127724
 H        -1.644954        -1.003426         0.546390
 H        -2.040639        -0.072404         2.113046
 H        -3.773341         0.294867        -0.159984
 H        -1.280933         0.386234        -1.705496
 H        -2.550470         4.057851        -0.545833
 H        -3.612052         2.832669        -1.382388
 H        -3.520739         2.672421         1.128587
 H        -0.519831         2.982464         0.470355
 H        -1.011839         2.462413         2.238119
