19
Iteration:  2478
 O         0.620651         0.675127         0.528486
 C        -0.763647         1.023650         0.518327
 C        -1.807167        -0.022804         0.983666
 C        -2.781522         0.791781         0.040808
 C        -1.639541         1.007459        -0.824992
 O        -1.619271         2.313552        -1.616788
 C        -2.558599         3.009459        -0.801490
 C        -2.704441         2.279643         0.615897
 C        -1.262282         2.289159         1.241427
 H         1.139772         1.462690         0.357324
 H        -1.582848        -0.944657         0.652180
 H        -2.127738        -0.033861         2.023239
 H        -3.627429         0.352481        -0.462220
 H        -1.271314         0.223210        -1.502564
 H        -2.204217         4.059260        -0.768739
 H        -3.532675         3.178631        -1.442655
 H        -3.427633         2.740158         1.352553
 H        -0.702483         3.204586         0.893240
 H        -1.295770         2.211274         2.299181
