19
Iteration:   962
 O         0.624464         0.572154         0.660658
 C        -0.737478         0.990868         0.493402
 C        -1.821679         0.008832         0.895032
 C        -2.780667         0.847450         0.017871
 C        -1.549580         1.074105        -0.896728
 O        -1.688560         2.289364        -1.546813
 C        -2.612321         3.071865        -0.752200
 C        -2.698001         2.290247         0.505686
 C        -1.206933         2.268197         1.223800
 H         1.025264         1.396581         0.921464
 H        -1.594645        -0.943665         0.477422
 H        -2.173995        -0.049721         2.001657
 H        -3.731251         0.417049        -0.394775
 H        -1.244653         0.336925        -1.646854
 H        -2.239203         4.118427        -0.746462
 H        -3.596337         3.155289        -1.275321
 H        -3.460963         2.651291         1.173382
 H        -0.699526         3.076075         0.831665
 H        -1.194882         2.249935         2.267885
