19
Iteration:  1715charge 0 multiplicity 1
 O         0.716865         0.703302         0.356412
 C        -0.740204         1.021040         0.515643
 C        -1.976427        -0.018097         0.993156
 C        -2.820108         0.824591         0.051515
 C        -1.517200         1.052335        -0.766295
 O        -1.550450         2.272499        -1.485735
 C        -2.573002         3.031675        -0.783445
 C        -2.821507         2.294241         0.533855
 C        -1.225790         2.232023         1.206017
 H         1.050821         1.064262         1.244139
 H        -1.855889        -0.996386         0.568458
 H        -2.171552        -0.129854         2.100762
 H        -3.851509         0.533169        -0.440581
 H        -1.141749         0.340347        -1.525825
 H        -2.240979         4.111874        -0.668999
 H        -3.438702         3.010845        -1.293241
 H        -3.601979         2.594555         1.228825
 H        -0.765939         3.286003         0.826830
 H        -1.363218         2.134853         2.288706
