19
Iteration:  3544charge 0 multiplicity 1
 O         0.663611         0.571148         0.586977
 C        -0.689871         0.943120         0.543023
 C        -1.864768         0.009801         1.003151
 C        -2.767856         0.835218         0.013385
 C        -1.517409         1.054900        -0.851170
 O        -1.733167         2.347496        -1.504623
 C        -2.662205         3.117615        -0.806171
 C        -2.676257         2.242424         0.528616
 C        -1.224728         2.290773         1.116302
 H         1.177821         1.431638         0.574262
 H        -1.671373        -0.863381         0.441946
 H        -2.180833        -0.146307         2.023947
 H        -3.730378         0.401041        -0.282537
 H        -1.217770         0.265090        -1.626780
 H        -2.189585         4.040690        -0.484888
 H        -3.672242         3.281739        -1.402970
 H        -3.614784         2.415017         1.113431
 H        -0.694328         3.137837         0.786966
 H        -1.072561         2.225738         2.248323
