19
Iteration:  1837charge 0 multiplicity 1
 O         0.625808         0.727525         0.387227
 C        -0.769510         0.993266         0.507857
 C        -1.871103        -0.100407         0.979437
 C        -2.797848         0.771359         0.111937
 C        -1.554677         1.000406        -0.808907
 O        -1.575161         2.339603        -1.451293
 C        -2.552952         3.070205        -0.808168
 C        -2.747849         2.337130         0.548263
 C        -1.278401         2.306112         1.135698
 H         1.134887         0.526781         1.201714
 H        -1.788492        -1.070951         0.524645
 H        -2.114613        -0.145158         2.074801
 H        -3.646126         0.309067        -0.352355
 H        -1.108048         0.150708        -1.346641
 H        -2.204855         4.139978        -0.627662
 H        -3.573352         3.126280        -1.399205
 H        -3.470483         2.680115         1.216618
 H        -0.636727         3.216592         0.807317
 H        -1.349461         2.278415         2.198889
