19
Iteration:  2301
 O         0.556318         0.702430         0.651309
 C        -0.741606         1.028699         0.490409
 C        -1.792330         0.003944         0.921217
 C        -2.620142         0.833669         0.142243
 C        -1.541958         1.035098        -0.926990
 O        -1.774956         2.171956        -1.630616
 C        -2.554354         3.111552        -0.769681
 C        -2.673638         2.319415         0.564028
 C        -1.292969         2.205164         1.209177
 H         0.956535         1.304437         0.016910
 H        -1.543149        -0.874142         0.427262
 H        -2.172984        -0.153759         1.966274
 H        -3.652501         0.503930        -0.197930
 H        -1.294117         0.293361        -1.661977
 H        -1.953837         4.070962        -0.695767
 H        -3.458850         3.440227        -1.220173
 H        -3.568431         2.612900         1.258345
 H        -0.681923         3.214129         1.248488
 H        -1.347851         1.958958         2.236821
