19
Iteration:   937charge 0 multiplicity 1
 O         0.569029         0.713582         0.459402
 C        -0.770013         1.005979         0.522045
 C        -1.853916        -0.065806         1.005877
 C        -2.685083         0.767970         0.101549
 C        -1.487110         1.025191        -0.889628
 O        -1.698609         2.295131        -1.685507
 C        -2.492397         3.117233        -0.766916
 C        -2.668537         2.339461         0.524259
 C        -1.364735         2.208029         1.338475
 H         0.949775         0.941892         1.326425
 H        -1.667207        -1.108321         0.633295
 H        -2.234591         0.017376         2.108605
 H        -3.600465         0.430599        -0.388998
 H        -1.259727         0.224166        -1.610288
 H        -1.918544         4.036806        -0.603855
 H        -3.390048         3.435498        -1.235859
 H        -3.524128         2.850808         1.126936
 H        -0.729896         3.083021         1.065024
 H        -1.507213         1.989066         2.428614
