19
Iteration:  4553
 O         0.542673         0.654042         0.594439
 C        -0.799640         0.992287         0.501049
 C        -1.747873        -0.086273         0.951868
 C        -2.778041         0.847902         0.022315
 C        -1.559299         1.051838        -0.778335
 O        -1.652447         2.270430        -1.610412
 C        -2.548328         3.122659        -0.794559
 C        -2.698318         2.347388         0.550589
 C        -1.262310         2.259495         1.225268
 H         1.111096         1.293191         0.180197
 H        -1.772752        -1.104021         0.588452
 H        -1.919168        -0.253513         2.032868
 H        -3.673646         0.605716        -0.472042
 H        -1.258316         0.217952        -1.444169
 H        -1.955911         3.995364        -0.632197
 H        -3.531558         3.167453        -1.339232
 H        -3.531883         2.617631         1.148553
 H        -0.543627         2.983997         0.981723
 H        -1.262480         2.078955         2.346608
