19
Iteration:  1162
 O         0.619514         0.621307         0.742464
 C        -0.755471         0.966609         0.497753
 C        -1.851206        -0.041123         1.004503
 C        -2.731972         0.862795         0.025781
 C        -1.525056         1.113019        -0.940648
 O        -1.602671         2.398767        -1.417569
 C        -2.741585         3.043065        -0.806695
 C        -2.652323         2.293880         0.512807
 C        -1.237156         2.257676         1.040950
 H         0.851470         0.053914        -0.010466
 H        -1.805770        -1.081929         0.465064
 H        -2.027629        -0.094091         2.063635
 H        -3.653990         0.430155        -0.397539
 H        -1.238358         0.279411        -1.675720
 H        -2.395024         4.091076        -0.780072
 H        -3.609148         2.923750        -1.345585
 H        -3.524527         2.619667         1.141653
 H        -0.653573         2.993843         0.564986
 H        -1.088493         2.338619         2.050202
