19
Iteration:   800
 O         0.666442         0.720432         0.753109
 C        -0.701910         0.959593         0.494001
 C        -1.903677         0.009341         0.888759
 C        -2.782123         0.846949         0.070505
 C        -1.612965         1.088180        -0.896333
 O        -1.575404         2.275966        -1.647035
 C        -2.621799         3.060160        -0.709861
 C        -2.707510         2.269021         0.572879
 C        -1.268693         2.206262         1.117880
 H         1.125391         0.870190        -0.120380
 H        -1.773789        -0.951738         0.468253
 H        -2.200475        -0.014650         1.900287
 H        -3.825414         0.571649        -0.199136
 H        -1.524389         0.203104        -1.502572
 H        -2.240163         4.060000        -0.523241
 H        -3.561710         3.082201        -1.163355
 H        -3.342655         2.674505         1.259521
 H        -0.670886         3.055053         0.775414
 H        -1.070514         2.052156         2.231286
