19
Iteration:    48charge 0 multiplicity 1
 O         0.527143         0.519175         0.711658
 C        -0.761439         0.989091         0.542354
 C        -1.816151        -0.086718         0.830138
 C        -2.665001         0.802507        -0.012168
 C        -1.508535         1.101566        -0.844615
 O        -1.739817         2.385258        -1.609287
 C        -2.688748         3.105046        -0.691792
 C        -2.595550         2.291707         0.532514
 C        -1.157423         2.395472         1.088104
 H         0.729916         0.546236         1.665622
 H        -1.520469        -1.039973         0.520849
 H        -2.232157        -0.166319         1.910978
 H        -3.625015         0.395964        -0.464672
 H        -1.170761         0.302198        -1.590989
 H        -2.580213         4.220983        -0.705930
 H        -3.800279         2.943551        -0.990112
 H        -3.375469         2.460416         1.318359
 H        -0.536498         2.978565         0.463036
 H        -0.988614         2.524019         2.169416
