19
Iteration:  2112
 O         0.605898         0.623813         0.494710
 C        -0.770744         1.015010         0.416289
 C        -1.869180         0.027003         1.025462
 C        -2.754481         0.780536         0.026050
 C        -1.522775         1.036640        -0.901620
 O        -1.519971         2.287523        -1.412779
 C        -2.702738         2.966254        -0.778114
 C        -2.755776         2.345689         0.573286
 C        -1.225662         2.338205         1.209938
 H         1.169548         1.380458         0.153481
 H        -1.668240        -1.037228         0.575152
 H        -2.179346        -0.029681         2.026104
 H        -3.726745         0.389404        -0.312377
 H        -1.351232         0.180179        -1.602820
 H        -2.401292         4.090268        -0.754978
 H        -3.540286         2.853972        -1.385966
 H        -3.613930         2.648768         1.248717
 H        -0.683899         3.251779         0.830909
 H        -0.976108         2.392670         2.332369
