19
Iteration:   892charge 0 multiplicity 1
 O         0.581153         0.896175         0.483740
 C        -0.834033         0.898607         0.510304
 C        -1.889630        -0.142089         0.990640
 C        -2.804224         0.799883         0.075402
 C        -1.569201         1.078966        -0.878713
 O        -1.557839         2.277791        -1.531809
 C        -2.454045         3.071544        -0.762913
 C        -2.675753         2.325083         0.549812
 C        -1.267759         2.262211         1.188453
 H         0.933483         0.180668         1.003720
 H        -1.961983        -1.135260         0.362755
 H        -2.064876        -0.230115         2.134557
 H        -3.810229         0.405999        -0.078031
 H        -1.272866         0.240719        -1.548216
 H        -2.150263         4.111380        -0.683280
 H        -3.381788         3.058387        -1.307263
 H        -3.665955         2.717857         1.024223
 H        -0.605313         3.101543         0.743405
 H        -1.269436         2.064121         2.310441
