19
Iteration:  3185
 O         0.566277         0.670018         0.480858
 C        -0.786551         0.947668         0.552836
 C        -1.818290        -0.126966         1.041581
 C        -2.753365         0.774774         0.083703
 C        -1.506062         1.010769        -0.881524
 O        -1.606813         2.354636        -1.604204
 C        -2.599012         3.163235        -0.736527
 C        -2.696152         2.326218         0.578537
 C        -1.261083         2.284697         1.183979
 H         0.893582         1.444331         0.063613
 H        -1.784880        -1.058712         0.495228
 H        -1.926258        -0.424594         2.137890
 H        -3.674611         0.225767        -0.203895
 H        -0.962286         0.349310        -1.642912
 H        -2.377435         4.259034        -0.625606
 H        -3.617569         3.119322        -1.295005
 H        -3.578793         2.530067         1.223388
 H        -0.833916         3.236289         0.969180
 H        -1.256897         2.177503         2.252708
