19
Iteration:  1184
 O         0.585251         0.783854         0.659337
 C        -0.798349         0.948364         0.503505
 C        -1.926022        -0.069514         0.937095
 C        -2.810162         0.816239        -0.010238
 C        -1.512462         1.049205        -0.914470
 O        -1.594441         2.337689        -1.578529
 C        -2.606804         3.052455        -0.747064
 C        -2.639175         2.294033         0.601942
 C        -1.189615         2.299435         1.184453
 H         0.988593        -0.004112         0.238783
 H        -1.552648        -1.117959         0.502838
 H        -2.223670        -0.123973         1.956768
 H        -3.766403         0.344775        -0.294033
 H        -1.379811         0.064239        -1.491010
 H        -2.173097         4.073980        -0.665354
 H        -3.465252         3.011331        -1.348735
 H        -3.493798         2.605008         1.297670
 H        -0.676149         3.166012         0.922024
 H        -1.134677         2.184029         2.200948
