19
Iteration:  4985charge 0 multiplicity 1
 O         0.598515         0.611589         0.606687
 C        -0.755467         0.971336         0.444923
 C        -1.880481         0.030752         0.933526
 C        -2.801290         0.840357         0.071813
 C        -1.527120         1.016776        -0.868150
 O        -1.606017         2.306250        -1.530630
 C        -2.640896         3.081434        -0.765537
 C        -2.686390         2.301704         0.537637
 C        -1.192402         2.249044         1.201294
 H         1.071093         1.432712         0.437744
 H        -1.773335        -0.923577         0.544414
 H        -2.341426        -0.231671         1.870594
 H        -3.775034         0.376081        -0.238660
 H        -1.238276         0.390749        -1.726326
 H        -2.167175         4.138958        -0.699344
 H        -3.507344         3.038290        -1.395560
 H        -3.451150         2.612240         1.261260
 H        -0.499424         3.158414         1.098867
 H        -1.204315         2.238870         2.238936
