19
Iteration:  2534
 O         0.593434         0.605831         0.713541
 C        -0.745134         0.987064         0.453330
 C        -1.853085        -0.015884         0.966902
 C        -2.723708         0.826539         0.079492
 C        -1.499150         1.056857        -0.940780
 O        -1.666799         2.320620        -1.531542
 C        -2.758350         3.020259        -0.745932
 C        -2.671026         2.294723         0.530852
 C        -1.155800         2.327742         1.087688
 H         1.290807         1.174514         0.357008
 H        -1.778212        -0.944946         0.494916
 H        -2.075585        -0.094533         1.991410
 H        -3.706573         0.505902        -0.180942
 H        -1.116709         0.346398        -1.737510
 H        -2.396508         4.022389        -0.694520
 H        -3.784881         2.890435        -1.300113
 H        -3.409420         2.661004         1.304368
 H        -0.507740         3.147818         0.784347
 H        -1.283073         2.315098         2.168339
