19
Iteration:   608
 O         0.542994         0.828510         0.457478
 C        -0.866189         0.968827         0.527547
 C        -1.833435        -0.138880         0.992795
 C        -2.834806         0.839663         0.110914
 C        -1.582059         0.932632        -0.826392
 O        -1.484691         2.261940        -1.544683
 C        -2.455160         3.059633        -0.768530
 C        -2.681760         2.384082         0.536270
 C        -1.331462         2.232697         1.181130
 H         0.994822         1.663916         0.308235
 H        -1.528977        -1.178067         0.594571
 H        -1.906689        -0.410223         2.034797
 H        -3.879871         0.613398        -0.014905
 H        -1.265873         0.203358        -1.570719
 H        -2.176152         4.111133        -0.713216
 H        -3.403226         3.012952        -1.229968
 H        -3.588189         2.965008         1.136653
 H        -0.554178         2.966216         0.870733
 H        -1.421153         2.078587         2.205146
