19
Iteration:  1190charge 0 multiplicity 1
 O         0.617992         0.804941         0.632488
 C        -0.798650         1.006570         0.504110
 C        -1.933238        -0.096876         0.960554
 C        -2.754124         0.855014         0.001252
 C        -1.530283         1.050268        -0.969452
 O        -1.594441         2.271386        -1.571944
 C        -2.577948         3.054110        -0.734136
 C        -2.626989         2.292736         0.622362
 C        -1.277328         2.260362         1.197180
 H         0.832483        -0.059927         0.300640
 H        -1.730652        -0.970116         0.471542
 H        -2.249416        -0.251283         2.049691
 H        -3.712879         0.446484        -0.363432
 H        -1.368049         0.169244        -1.549732
 H        -2.048969         4.004908        -0.691432
 H        -3.617535         3.247789        -1.297855
 H        -3.479908         2.618492         1.138297
 H        -0.680037         3.212440         0.901395
 H        -1.151414         2.122118         2.364902
