19
Iteration:  3339charge 0 multiplicity 1
 O         0.563725         0.686592         0.539993
 C        -0.731881         1.058906         0.464480
 C        -1.781817        -0.012626         0.911297
 C        -2.785648         0.806648         0.051968
 C        -1.540302         1.006046        -0.858601
 O        -1.640974         2.240513        -1.532006
 C        -2.603744         3.068642        -0.736544
 C        -2.677861         2.306994         0.597224
 C        -1.283146         2.245882         1.213346
 H         1.079965         1.414536         0.076281
 H        -1.666800        -0.941162         0.298731
 H        -1.957207        -0.137474         1.977970
 H        -3.881775         0.588090        -0.084956
 H        -1.142164         0.290919        -1.594066
 H        -2.202832         4.092478        -0.648912
 H        -3.572176         3.122161        -1.266411
 H        -3.427962         2.603835         1.308032
 H        -0.632161         3.167318         1.071125
 H        -1.325244         2.013284         2.290018
