19
Iteration:  1153
 O         0.629460         0.573102         0.725900
 C        -0.730580         0.851794         0.488219
 C        -1.864283        -0.001278         0.975528
 C        -2.704727         0.850113         0.010100
 C        -1.462063         1.073821        -0.928124
 O        -1.593162         2.415023        -1.459506
 C        -2.746966         3.045965        -0.791362
 C        -2.752167         2.328494         0.544961
 C        -1.237716         2.382555         1.049036
 H         1.032336        -0.038377         0.081632
 H        -1.537611        -1.111943         0.642614
 H        -2.148648        -0.156169         1.978702
 H        -3.681040         0.444175        -0.253673
 H        -1.496498         0.272870        -1.726668
 H        -2.515785         4.141785        -0.731499
 H        -3.599639         2.882642        -1.444349
 H        -3.451070         2.483348         1.458554
 H        -0.794664         3.338563         0.672792
 H        -1.216748         2.381128         2.160928
