19
Iteration:   781charge 0 multiplicity 1
 O         0.575147         0.764690         0.593110
 C        -0.815000         0.959119         0.467140
 C        -1.822470        -0.111253         0.977774
 C        -2.805211         0.811743         0.045647
 C        -1.554475         0.983651        -0.898095
 O        -1.614727         2.277341        -1.521865
 C        -2.496575         3.086522        -0.815177
 C        -2.660978         2.373378         0.554842
 C        -1.305788         2.248419         1.271857
 H         1.034611         1.216889        -0.172119
 H        -1.709209        -1.117754         0.357091
 H        -1.903922        -0.190167         2.066203
 H        -3.812581         0.531275        -0.221261
 H        -1.347153         0.173697        -1.596104
 H        -2.028066         4.064142        -0.783174
 H        -3.410443         3.255805        -1.452556
 H        -3.530547         2.775017         1.137416
 H        -0.660254         3.187017         1.152513
 H        -1.290231         2.029986         2.402588
