19
Iteration:  3424
 O         0.613520         0.569651         0.625024
 C        -0.695080         0.940894         0.469699
 C        -1.818865        -0.006211         0.956010
 C        -2.747089         0.780437         0.140873
 C        -1.554794         1.123174        -0.875084
 O        -1.626385         2.385654        -1.528281
 C        -2.785660         3.052784        -0.814850
 C        -2.687490         2.295510         0.510980
 C        -1.157814         2.271816         1.132828
 H         1.133691         1.360574         0.513643
 H        -1.784973        -0.927436         0.395698
 H        -2.078272        -0.275896         1.975180
 H        -3.780814         0.414179        -0.083866
 H        -1.352272         0.366843        -1.747826
 H        -2.511444         4.032495        -0.580839
 H        -3.697516         2.961263        -1.456673
 H        -3.426858         2.724532         1.258850
 H        -0.628923         3.148116         0.902914
 H        -1.117795         2.224879         2.304159
