19
Iteration:  3750charge 0 multiplicity 1
 O         0.565370         0.598051         0.607220
 C        -0.764034         0.976734         0.501726
 C        -1.792895        -0.031578         1.037462
 C        -2.777439         0.835217         0.016793
 C        -1.539635         1.017190        -0.897438
 O        -1.615261         2.367423        -1.531313
 C        -2.658905         3.045111        -0.752439
 C        -2.674743         2.290158         0.530790
 C        -1.225512         2.335877         1.120425
 H         1.126819         1.323598         0.363183
 H        -1.641737        -0.971531         0.433752
 H        -1.978728        -0.315339         2.090966
 H        -3.713280         0.399117        -0.327899
 H        -1.412633         0.085366        -1.527991
 H        -2.177129         4.056987        -0.571401
 H        -3.648579         3.037242        -1.313011
 H        -3.405447         2.667338         1.299669
 H        -0.674861         3.225045         0.751104
 H        -1.294283         2.237544         2.174332
