19
Iteration:  2981
 O         0.700068         0.574909         0.684829
 C        -0.743151         1.055279         0.435583
 C        -1.867828         0.014981         0.863639
 C        -2.782654         0.811069         0.000255
 C        -1.544655         1.024297        -0.858887
 O        -1.709293         2.334871        -1.529352
 C        -2.679474         3.084842        -0.671726
 C        -2.624044         2.246895         0.546669
 C        -1.244771         2.296480         1.152285
 H         1.192521         0.769401        -0.119148
 H        -1.482241        -0.978056         0.450752
 H        -2.074387        -0.177025         1.953206
 H        -3.835454         0.625636        -0.308608
 H        -1.187064         0.330549        -1.523484
 H        -2.316080         4.176762        -0.549072
 H        -3.647839         2.876737        -1.229108
 H        -3.260648         2.673667         1.315123
 H        -0.856784         3.368355         0.958623
 H        -1.360903         2.187220         2.227885
