19
Iteration:  1569
 O         0.526735         0.769197         0.420963
 C        -0.806374         0.922872         0.531883
 C        -1.903671        -0.079184         1.011229
 C        -2.770523         0.831267         0.032102
 C        -1.468301         1.007000        -0.883379
 O        -1.506880         2.321038        -1.517961
 C        -2.613189         3.009168        -0.761960
 C        -2.652995         2.367864         0.569808
 C        -1.310523         2.259696         1.203201
 H         1.097567         0.843118         1.155906
 H        -1.596391        -1.170018         0.837960
 H        -2.070086        -0.172822         2.058139
 H        -3.826498         0.599930        -0.408793
 H        -1.221990         0.161400        -1.528451
 H        -2.236346         4.060109        -0.703736
 H        -3.470640         3.014640        -1.331798
 H        -3.544958         2.770142         1.202922
 H        -0.668377         3.122703         0.730135
 H        -1.288032         2.323507         2.370435
