19
Iteration:   453
 O         0.687795         0.708196         0.505570
 C        -0.783689         1.010187         0.470942
 C        -1.830634         0.033413         0.969568
 C        -2.858757         0.715832         0.050364
 C        -1.544414         0.987431        -0.844827
 O        -1.628794         2.222704        -1.610690
 C        -2.435710         3.080459        -0.765233
 C        -2.710548         2.356946         0.525041
 C        -1.386896         2.248183         1.332661
 H         1.121237         1.514134         0.159968
 H        -1.723915        -1.035319         0.605113
 H        -2.070378         0.194420         2.035868
 H        -3.845902         0.462288        -0.193073
 H        -1.454395         0.218980        -1.592428
 H        -1.739812         3.908355        -0.608890
 H        -3.313297         3.440842        -1.311769
 H        -3.583313         2.723193         1.318204
 H        -0.908471         3.257459         1.310022
 H        -1.630134         2.041877         2.364053
