19
Iteration:  2131
 O         0.537508         0.687928         0.495290
 C        -0.769657         0.997440         0.543629
 C        -1.814423        -0.058802         0.987592
 C        -2.806800         0.824560         0.101439
 C        -1.540039         1.046730        -0.818390
 O        -1.583594         2.326582        -1.561221
 C        -2.539509         3.034927        -0.794747
 C        -2.664948         2.251821         0.598452
 C        -1.292564         2.282488         1.101409
 H         0.905465         1.579506         0.218135
 H        -1.599071        -1.068135         0.605477
 H        -1.975493        -0.121870         2.056377
 H        -3.822194         0.599081        -0.196160
 H        -1.166262         0.182014        -1.417715
 H        -2.352515         4.103806        -0.617088
 H        -3.506876         2.785679        -1.322569
 H        -3.457919         2.579130         1.162520
 H        -0.639874         3.119399         0.927970
 H        -1.327745         2.275409         2.276005
