19
Iteration:  2878charge 0 multiplicity 1
 O         0.611172         0.736844         0.520994
 C        -0.752107         0.973176         0.479065
 C        -1.764896        -0.083613         0.971628
 C        -2.735844         0.793221         0.031892
 C        -1.544539         0.976943        -0.889293
 O        -1.656500         2.293059        -1.523114
 C        -2.644755         3.144488        -0.785971
 C        -2.706993         2.333812         0.549903
 C        -1.277321         2.303573         1.262497
 H         0.878148        -0.079850         0.943529
 H        -1.606313        -1.130432         0.681543
 H        -2.171796         0.083049         1.976847
 H        -3.721596         0.514614        -0.298858
 H        -1.277615         0.315362        -1.738540
 H        -2.128227         4.139480        -0.773184
 H        -3.570742         3.423607        -1.330742
 H        -3.560750         2.480569         1.172868
 H        -0.659063         3.187791         0.871305
 H        -1.154266         2.111499         2.362895
