19
Iteration:   957charge 0 multiplicity 1
 O         0.617383         0.583291         0.630362
 C        -0.740436         0.982527         0.513648
 C        -1.828399        -0.035950         0.957028
 C        -2.788452         0.871639        -0.007601
 C        -1.558690         1.070014        -0.886478
 O        -1.681779         2.292964        -1.613657
 C        -2.597489         3.110705        -0.767843
 C        -2.704008         2.259002         0.538206
 C        -1.212161         2.290878         1.221487
 H         1.046214         1.390480         1.030776
 H        -1.568218        -1.044257         0.507955
 H        -2.054140        -0.078650         2.010286
 H        -3.723391         0.435066        -0.299736
 H        -1.162716         0.410302        -1.672983
 H        -2.139973         4.097188        -0.737050
 H        -3.555131         3.119731        -1.288454
 H        -3.501347         2.527947         1.298552
 H        -0.626232         3.281985         0.963311
 H        -1.346716         2.067234         2.367184
