19
Iteration:  1549charge 0 multiplicity 1
 O         0.592615         0.778390         0.438849
 C        -0.784095         0.991824         0.541845
 C        -1.899204        -0.030469         0.933676
 C        -2.804249         0.790292         0.075883
 C        -1.606509         1.038033        -0.835502
 O        -1.567702         2.249591        -1.526568
 C        -2.478481         3.062351        -0.791834
 C        -2.706938         2.284760         0.530995
 C        -1.240495         2.276990         1.245005
 H         0.955508         1.036150         1.316604
 H        -1.824784        -0.977510         0.453145
 H        -2.099675        -0.256025         1.950948
 H        -3.786880         0.457677        -0.444009
 H        -1.262711         0.166751        -1.377132
 H        -2.021051         4.105737        -0.797290
 H        -3.411587         2.982464        -1.448458
 H        -3.520958         2.577210         1.242700
 H        -0.778013         3.312940         1.076267
 H        -1.222686         2.002328         2.296213
