19
Iteration:  4233charge 0 multiplicity 1
 O         0.626780         0.644593         0.575227
 C        -0.802852         0.987846         0.464611
 C        -1.789812         0.003167         0.958170
 C        -2.813262         0.865203         0.011289
 C        -1.539953         1.056822        -0.871939
 O        -1.663089         2.274800        -1.553193
 C        -2.571538         3.048752        -0.798843
 C        -2.712382         2.270842         0.589847
 C        -1.227723         2.228078         1.219440
 H         1.064541         1.528415         0.710823
 H        -1.893369        -1.004624         0.618470
 H        -2.116350         0.074106         2.014487
 H        -3.722095         0.504470        -0.453531
 H        -1.242721         0.240014        -1.487623
 H        -2.082643         3.985596        -0.514480
 H        -3.552746         3.197175        -1.269418
 H        -3.436104         2.681321         1.186300
 H        -0.630997         3.037827         0.904589
 H        -1.132717         2.327827         2.336437
