19
Iteration:  1644
 O         0.668757         0.666462         0.632926
 C        -0.722500         0.953417         0.544750
 C        -1.852868        -0.026740         0.922065
 C        -2.800693         0.862788        -0.066453
 C        -1.558929         1.030439        -0.909818
 O        -1.740709         2.294449        -1.599774
 C        -2.597509         3.070277        -0.764400
 C        -2.662389         2.310346         0.613462
 C        -1.198395         2.349180         1.191351
 H         0.981315         0.589010         1.590033
 H        -1.750472        -1.121180         0.493539
 H        -2.069753        -0.320894         1.957654
 H        -3.702633         0.458395        -0.507695
 H        -1.173483         0.281636        -1.622173
 H        -2.254508         4.097257        -0.764003
 H        -3.680420         2.926907        -1.214232
 H        -3.524249         2.626270         1.316942
 H        -0.580811         3.076615         0.818686
 H        -1.189872         2.238591         2.296748
