19
Iteration:  4734
 O         0.583435         0.590827         0.518735
 C        -0.783422         0.976465         0.465095
 C        -1.894432        -0.005209         0.993813
 C        -2.802885         0.836299         0.097215
 C        -1.489676         1.115371        -0.834307
 O        -1.595685         2.334746        -1.516969
 C        -2.575473         3.044581        -0.829513
 C        -2.658206         2.299309         0.540082
 C        -1.302732         2.236010         1.245277
 H         1.148068         1.245007         0.017760
 H        -1.697435        -1.012379         0.597460
 H        -1.850506        -0.203291         2.082040
 H        -3.813504         0.353417        -0.240978
 H        -1.172446         0.268054        -1.525808
 H        -2.170692         4.121421        -0.671708
 H        -3.444562         3.123795        -1.547796
 H        -3.530732         2.679075         1.161029
 H        -0.714607         3.162534         0.968370
 H        -1.293143         2.234549         2.275184
