19
Iteration:  4980
 O         0.628410         0.600707         0.637088
 C        -0.730514         0.954252         0.450865
 C        -1.884228         0.004822         0.938946
 C        -2.831671         0.826724         0.067627
 C        -1.552861         1.052920        -0.904393
 O        -1.618758         2.281602        -1.519117
 C        -2.607837         3.118406        -0.734572
 C        -2.654176         2.311981         0.519577
 C        -1.209894         2.291476         1.153021
 H         1.074692         1.458487         0.453690
 H        -1.522904        -1.020575         0.466754
 H        -2.413787        -0.147356         1.925210
 H        -3.809950         0.545704        -0.270562
 H        -1.193477         0.241853        -1.567701
 H        -2.449520         4.168575        -0.821402
 H        -3.647476         3.132747        -1.227185
 H        -3.465122         2.472083         1.262540
 H        -0.514305         3.071567         0.972614
 H        -1.370148         2.047643         2.300459
