19
Iteration:  1412charge 0 multiplicity 1
 O         0.669075         0.709391         0.580680
 C        -0.785712         0.943903         0.517600
 C        -1.942086         0.002830         0.982327
 C        -2.760955         0.806957         0.029848
 C        -1.492652         1.002178        -0.844813
 O        -1.646258         2.289169        -1.563549
 C        -2.548590         3.133136        -0.740006
 C        -2.669582         2.263650         0.478533
 C        -1.306740         2.300607         1.251578
 H         0.931624         0.539459        -0.332333
 H        -1.714907        -1.022918         0.560524
 H        -2.257687        -0.219029         2.094161
 H        -3.639435         0.387466        -0.461248
 H        -1.188360         0.213752        -1.633686
 H        -2.106860         4.113691        -0.600371
 H        -3.479254         3.188781        -1.270528
 H        -3.356517         2.748882         1.183425
 H        -0.776517         3.197956         0.915720
 H        -1.514347         2.256210         2.446924
