19
Iteration:  3649
 O         0.564266         0.697053         0.558493
 C        -0.806939         0.977047         0.520643
 C        -1.823052        -0.048067         1.013373
 C        -2.808244         0.653995         0.059542
 C        -1.535025         1.001751        -0.941344
 O        -1.660352         2.298165        -1.578305
 C        -2.508025         3.144351        -0.761458
 C        -2.653279         2.401109         0.596453
 C        -1.289297         2.239118         1.205087
 H         0.999407         1.554707         0.266089
 H        -1.452459        -1.039909         0.720747
 H        -1.926406        -0.186356         2.155303
 H        -3.679625         0.363474        -0.426904
 H        -1.143922         0.217900        -1.643147
 H        -2.190603         4.248635        -0.749719
 H        -3.484219         3.213955        -1.364040
 H        -3.491226         2.827594         1.191343
 H        -0.578599         3.080973         0.902992
 H        -1.249769         2.176760         2.231019
