19
Iteration:  3135
 O         0.619784         0.586043         0.659215
 C        -0.712801         0.919538         0.501453
 C        -1.817042        -0.078338         0.983377
 C        -2.722342         0.792751         0.088931
 C        -1.543311         1.112905        -0.925284
 O        -1.684616         2.415336        -1.556688
 C        -2.708603         3.066024        -0.745619
 C        -2.640216         2.309368         0.556883
 C        -1.242040         2.249408         1.084237
 H         1.138731         1.277593         0.166232
 H        -1.570500        -1.116571         0.534035
 H        -1.915451        -0.014901         2.067454
 H        -3.730095         0.467648        -0.204131
 H        -1.471286         0.417888        -1.704112
 H        -2.520505         4.127480        -0.413897
 H        -3.585392         3.179762        -1.355005
 H        -3.478756         2.571239         1.191039
 H        -0.606207         3.128290         0.638837
 H        -1.400989         2.293485         2.188687
