19
Iteration:   837charge 0 multiplicity 1
 O         0.557969         0.506921         0.750991
 C        -0.768658         1.033408         0.574316
 C        -1.774276        -0.007782         0.968619
 C        -2.700889         0.760386        -0.018629
 C        -1.470475         1.133965        -0.884483
 O        -1.679986         2.386791        -1.596895
 C        -2.778542         3.100687        -0.752022
 C        -2.639966         2.273801         0.541025
 C        -1.173123         2.337886         1.076078
 H         0.787516        -0.003098        -0.024221
 H        -1.442872        -1.085192         0.611725
 H        -2.227839        -0.177057         1.997268
 H        -3.646508         0.322660        -0.246970
 H        -1.264436         0.283679        -1.560837
 H        -2.387852         4.101537        -0.607035
 H        -3.663811         3.091959        -1.392378
 H        -3.492278         2.626710         1.237210
 H        -0.687143         3.246119         0.562289
 H        -1.165891         2.527179         2.179115
