19
Iteration:  2310charge 0 multiplicity 1
 O         0.586388         0.708424         0.662417
 C        -0.730746         1.048274         0.447198
 C        -1.746817        -0.013389         0.969285
 C        -2.759616         0.837867         0.027393
 C        -1.525009         1.037271        -0.925046
 O        -1.803491         2.174119        -1.623209
 C        -2.533967         3.156899        -0.801662
 C        -2.703426         2.339359         0.610311
 C        -1.275736         2.170262         1.261879
 H         1.248980         1.276840         0.262910
 H        -1.685087        -0.988844         0.522490
 H        -1.966541        -0.088170         2.022354
 H        -3.696840         0.286227        -0.285474
 H        -1.228371         0.271499        -1.606278
 H        -1.880936         4.082132        -0.609039
 H        -3.523065         3.149286        -1.366856
 H        -3.376489         2.718789         1.363799
 H        -0.646474         3.062347         0.913451
 H        -1.291713         2.006701         2.356128
