19
Iteration:   513
 O         0.635633         0.515392         0.783851
 C        -0.662941         0.968059         0.491264
 C        -1.880622         0.039043         0.925816
 C        -2.719342         0.915919         0.020644
 C        -1.514978         1.048390        -0.950026
 O        -1.682895         2.400992        -1.505946
 C        -2.739772         2.950078        -0.800621
 C        -2.682973         2.316900         0.587030
 C        -1.163551         2.311628         1.056254
 H         1.214978         1.261843         0.628042
 H        -1.848025        -0.952610         0.546112
 H        -2.183353        -0.222791         1.967760
 H        -3.779501         0.620819        -0.383697
 H        -1.610416         0.187695        -1.692074
 H        -2.615048         4.102135        -0.800447
 H        -3.752293         2.741514        -1.345030
 H        -3.461179         2.337083         1.260358
 H        -0.714786         3.190319         0.513610
 H        -0.933974         2.289706         2.176128
