19
Iteration:  4920charge 0 multiplicity 1
 O         0.608580         0.536150         0.627187
 C        -0.759640         0.911374         0.502957
 C        -1.826343         0.007418         0.929888
 C        -2.689461         0.838704         0.049869
 C        -1.561733         1.060165        -0.962962
 O        -1.678248         2.309572        -1.524747
 C        -2.610109         3.072604        -0.796288
 C        -2.722441         2.345654         0.579787
 C        -1.241027         2.344814         1.225239
 H         1.176544         1.321417         0.357156
 H        -1.630084        -0.971417         0.652030
 H        -2.171075         0.020163         1.948662
 H        -3.616547         0.532926        -0.472479
 H        -1.465994         0.166893        -1.541739
 H        -2.125236         4.055862        -0.590023
 H        -3.555270         3.011610        -1.246840
 H        -3.672974         2.648414         1.000188
 H        -0.536264         3.262022         0.936483
 H        -1.176047         2.263467         2.251616
