19
Iteration:  3218
 O         0.598603         0.699159         0.588247
 C        -0.725242         0.982846         0.497859
 C        -1.829736         0.016320         0.921831
 C        -2.792363         0.825305         0.060950
 C        -1.619877         1.001441        -0.944302
 O        -1.664743         2.317162        -1.587383
 C        -2.538223         3.012661        -0.631767
 C        -2.631759         2.268113         0.583443
 C        -1.252079         2.274234         1.138231
 H         1.075416         1.510990         0.291767
 H        -1.711201        -0.925921         0.344299
 H        -1.970340        -0.177232         2.038123
 H        -3.829204         0.395348        -0.143939
 H        -1.311799         0.187969        -1.701884
 H        -2.146663         4.035610        -0.383734
 H        -3.567367         2.931198        -1.154056
 H        -3.452922         2.701714         1.171684
 H        -0.813483         3.260941         1.073294
 H        -1.357272         2.063733         2.207013
