19
Iteration:   347charge 0 multiplicity 1
 O         0.585230         0.465536         0.561680
 C        -0.724867         1.082104         0.601212
 C        -1.866190         0.017647         0.920651
 C        -2.724250         0.846623        -0.001556
 C        -1.510848         1.012219        -0.854528
 O        -1.573533         2.319448        -1.548413
 C        -2.735321         2.983644        -0.783828
 C        -2.746813         2.292625         0.598387
 C        -1.185826         2.425504         1.141771
 H         1.209054         1.052599         1.022836
 H        -1.643026        -1.108593         0.649062
 H        -2.312655        -0.052328         1.913882
 H        -3.633301         0.558950        -0.452698
 H        -1.201737         0.242490        -1.498178
 H        -2.614868         4.156755        -0.718272
 H        -3.621025         2.972198        -1.440258
 H        -3.455381         2.466100         1.394366
 H        -0.797489         3.390610         0.525403
 H        -1.000742         2.647754         2.198819
