19
Iteration:  1501charge 0 multiplicity 1
 O         0.579222         0.625243         0.628394
 C        -0.780397         1.075120         0.533583
 C        -1.875910        -0.008200         0.952720
 C        -2.746414         0.795700         0.043164
 C        -1.501622         1.024104        -0.957491
 O        -1.725824         2.305425        -1.623554
 C        -2.592531         3.084005        -0.783396
 C        -2.640988         2.247287         0.516778
 C        -1.195955         2.269811         1.225099
 H         0.868143         1.347076         1.230135
 H        -1.549471        -1.062579         0.669378
 H        -2.301495        -0.123681         1.962542
 H        -3.719062         0.635704        -0.272193
 H        -1.186227         0.167800        -1.597330
 H        -2.092103         4.021963        -0.503108
 H        -3.476724         3.279373        -1.284371
 H        -3.327920         2.609815         1.293688
 H        -0.598290         3.126159         0.941325
 H        -1.085374         2.068393         2.380797
