19
Iteration:  2015charge 0 multiplicity 1
 O         0.584099         0.713363         0.534186
 C        -0.778735         0.969355         0.497264
 C        -1.811729        -0.017825         0.978901
 C        -2.761275         0.786123         0.083138
 C        -1.581715         1.049379        -0.857586
 O        -1.650494         2.278183        -1.592106
 C        -2.584096         3.138266        -0.818886
 C        -2.651977         2.234009         0.592384
 C        -1.262059         2.220444         1.232797
 H         1.201353         1.495508         0.645346
 H        -1.510006        -1.050463         0.552853
 H        -2.018913        -0.016836         2.014106
 H        -3.701762         0.455566        -0.328349
 H        -1.463730         0.272343        -1.637268
 H        -2.084666         4.091167        -0.530360
 H        -3.571055         3.228870        -1.447713
 H        -3.578473         2.648912         1.130202
 H        -0.572578         3.059528         1.056414
 H        -1.276821         2.206951         2.246089
