19
Iteration:  4367
 O         0.558136         0.620414         0.614178
 C        -0.776259         0.975073         0.479393
 C        -1.859015        -0.041710         0.931455
 C        -2.720582         0.821546         0.062625
 C        -1.503576         1.035898        -0.852421
 O        -1.646672         2.333125        -1.595643
 C        -2.667885         3.072688        -0.769284
 C        -2.659614         2.306254         0.607494
 C        -1.180695         2.284291         1.113399
 H         1.033850         1.456328         0.729737
 H        -1.734435        -1.127366         0.613773
 H        -2.047184        -0.117801         2.039173
 H        -3.759773         0.527767        -0.257518
 H        -1.176369         0.189718        -1.619182
 H        -2.149423         4.112734        -0.703452
 H        -3.631316         3.008993        -1.215486
 H        -3.506337         2.647527         1.255986
 H        -0.652324         3.304716         1.024801
 H        -1.364052         2.106987         2.232730
