19
Iteration:  1980
 O         0.616341         0.661695         0.460937
 C        -0.769498         1.002267         0.538116
 C        -1.857018        -0.052076         0.950427
 C        -2.741584         0.831272         0.096443
 C        -1.562178         1.053467        -0.858234
 O        -1.512446         2.272413        -1.452052
 C        -2.632059         3.052535        -0.763967
 C        -2.762772         2.265174         0.530900
 C        -1.267506         2.324391         1.195289
 H         0.957505         1.515994         0.048230
 H        -1.521062        -1.060487         0.624640
 H        -2.135130        -0.064801         1.994399
 H        -3.663979         0.520581        -0.372451
 H        -1.568866         0.195320        -1.563618
 H        -2.362855         4.154028        -0.699631
 H        -3.560556         3.001748        -1.371028
 H        -3.572560         2.475156         1.210026
 H        -0.729212         3.129085         0.778638
 H        -1.204193         2.277477         2.218574
