19
Iteration:  3332charge 0 multiplicity 1
 O         0.667934         0.675981         0.539703
 C        -0.773464         1.034956         0.484472
 C        -1.817303         0.024413         0.905148
 C        -2.814123         0.857501         0.058579
 C        -1.601052         1.050345        -0.846795
 O        -1.636866         2.254132        -1.522608
 C        -2.601521         3.031153        -0.729588
 C        -2.678507         2.273966         0.577935
 C        -1.292527         2.208556         1.217275
 H         1.192705         1.385274         0.067027
 H        -1.443208        -0.917523         0.355535
 H        -1.963646        -0.305181         1.949538
 H        -3.765765         0.593388        -0.378688
 H        -1.211084         0.249467        -1.425933
 H        -2.143259         4.108538        -0.604793
 H        -3.612476         2.945503        -1.218751
 H        -3.498452         2.776496         1.118196
 H        -0.849925         3.146539         0.864877
 H        -1.078018         2.179009         2.271961
