19
Iteration:   135
 O         0.627450         0.848905         0.361001
 C        -0.824752         1.033086         0.569264
 C        -1.897545        -0.184766         0.975180
 C        -2.868024         0.854544        -0.010242
 C        -1.549553         0.981069        -0.793461
 O        -1.590553         2.169427        -1.491191
 C        -2.426139         3.082646        -0.741147
 C        -2.699434         2.359521         0.556875
 C        -1.284160         2.265426         1.200333
 H         1.067719         1.192427         1.145259
 H        -1.616350        -1.123038         0.554914
 H        -2.396808        -0.325687         1.965716
 H        -3.805000         0.595792        -0.637606
 H        -1.230702         0.116366        -1.493240
 H        -1.946498         4.087736        -0.634750
 H        -3.235409         3.301291        -1.314500
 H        -3.504494         2.705527         1.299706
 H        -0.721533         3.153050         1.101723
 H        -1.420841         2.122579         2.279892
