19
Iteration:   308
 O         0.660350         0.820883         0.594568
 C        -0.761138         0.939827         0.424184
 C        -1.868992        -0.051061         0.985208
 C        -2.774446         0.811506         0.093305
 C        -1.664674         0.964366        -0.911590
 O        -1.628846         2.256922        -1.653785
 C        -2.483274         3.173786        -0.822736
 C        -2.672706         2.310156         0.608863
 C        -1.279380         2.194203         1.214155
 H         0.856761         1.240798         1.451554
 H        -1.635043        -1.032664         0.741987
 H        -2.203272        -0.098597         2.088821
 H        -3.884797         0.563332        -0.101805
 H        -1.515422         0.017979        -1.604205
 H        -1.929990         4.062809        -0.712170
 H        -3.495783         3.272482        -1.326814
 H        -3.504970         2.619725         1.279992
 H        -0.600592         2.930954         1.005397
 H        -1.347395         1.886003         2.288837
