19
Iteration:  2607
 O         0.581411         0.747667         0.510198
 C        -0.829938         1.020310         0.523271
 C        -1.866032        -0.079545         1.003994
 C        -2.825546         0.743278         0.074204
 C        -1.604178         0.983730        -0.875335
 O        -1.541058         2.275094        -1.596722
 C        -2.602133         3.059244        -0.774347
 C        -2.637879         2.287851         0.543723
 C        -1.200790         2.310694         1.227217
 H         1.020115         1.645394         0.350644
 H        -1.744252        -1.109342         0.580039
 H        -2.063787         0.061715         2.145866
 H        -3.794673         0.413059        -0.229084
 H        -1.259933         0.240009        -1.529117
 H        -2.148333         4.073668        -0.475042
 H        -3.369494         3.251337        -1.449292
 H        -3.416642         2.560008         1.236033
 H        -0.717989         3.361037         1.104029
 H        -1.168527         2.044897         2.245941
