19
Iteration:  1295
 O         0.581770         0.604297         0.692568
 C        -0.760430         1.032420         0.502102
 C        -1.840888         0.005664         0.964049
 C        -2.765911         0.853065         0.033818
 C        -1.509787         1.090117        -0.928365
 O        -1.588361         2.389618        -1.446192
 C        -2.675880         3.015887        -0.820113
 C        -2.697198         2.287520         0.571070
 C        -1.201248         2.279162         1.065087
 H         0.795842        -0.107558         0.095930
 H        -1.642751        -1.056457         0.581171
 H        -2.090814        -0.107543         2.010746
 H        -3.660424         0.364731        -0.328623
 H        -1.112852         0.271936        -1.583640
 H        -2.671985         4.128497        -0.701166
 H        -3.597432         2.766387        -1.468315
 H        -3.531601         2.609839         1.280641
 H        -0.551818         3.039722         0.726374
 H        -1.226719         2.250804         2.075479
