19
Iteration:  4008
 O         0.601719         0.600156         0.634042
 C        -0.745623         1.001846         0.457045
 C        -1.937885        -0.024616         0.966079
 C        -2.712105         0.811085         0.039533
 C        -1.512074         1.055879        -0.902462
 O        -1.662869         2.330138        -1.526831
 C        -2.613147         3.016362        -0.766748
 C        -2.662249         2.261803         0.580171
 C        -1.224376         2.359763         1.138421
 H         1.256499         1.257551         0.399864
 H        -1.910527        -1.023767         0.560386
 H        -2.161715         0.008648         2.042447
 H        -3.659364         0.557470        -0.344258
 H        -1.263146         0.242460        -1.606440
 H        -2.368520         4.074770        -0.681742
 H        -3.679122         2.959797        -1.313331
 H        -3.293189         2.657512         1.382556
 H        -0.668130         3.143099         0.722451
 H        -1.200213         2.266398         2.253449
