19
Iteration:  3212charge 0 multiplicity 1
 O         0.648182         0.695259         0.571018
 C        -0.736986         0.995614         0.495315
 C        -1.780569         0.002639         0.893795
 C        -2.802333         0.878123         0.069667
 C        -1.643222         1.006647        -0.901049
 O        -1.667994         2.298758        -1.511072
 C        -2.539238         3.000198        -0.680725
 C        -2.684921         2.282920         0.535182
 C        -1.260831         2.223737         1.122183
 H         1.016031         1.503970         0.257743
 H        -1.745952        -1.099841         0.616985
 H        -2.156481        -0.070302         1.909932
 H        -3.620796         0.278783        -0.272573
 H        -1.411445         0.291136        -1.623092
 H        -2.107580         3.989529        -0.314131
 H        -3.480185         3.196774        -1.145209
 H        -3.410958         2.776729         1.183255
 H        -0.836439         3.272931         1.051566
 H        -1.365496         2.091936         2.235075
