19
Iteration:   341
 O         0.604025         0.500306         0.568594
 C        -0.738110         1.046390         0.529138
 C        -1.869084        -0.009939         0.931555
 C        -2.713107         0.819439         0.021820
 C        -1.492181         1.051797        -0.808882
 O        -1.617096         2.288836        -1.539744
 C        -2.661991         3.045779        -0.801104
 C        -2.743249         2.310555         0.610286
 C        -1.250038         2.379731         1.111468
 H         1.113300         1.120628         1.155889
 H        -1.548447        -0.901729         0.500954
 H        -2.260253        -0.016566         2.002400
 H        -3.767066         0.609320        -0.373632
 H        -1.133055         0.284994        -1.601263
 H        -2.469068         4.073360        -0.876071
 H        -3.659022         2.930014        -1.323366
 H        -3.496378         2.592850         1.383848
 H        -0.731604         3.140491         0.640824
 H        -1.040446         2.625148         2.169643
