19
Iteration:  2820
 O         0.609788         0.729426         0.710004
 C        -0.762638         0.940742         0.521094
 C        -1.830629        -0.056181         0.935999
 C        -2.781212         0.798688         0.065241
 C        -1.498938         1.053472        -0.852468
 O        -1.701310         2.353383        -1.533356
 C        -2.666826         3.038018        -0.766730
 C        -2.615114         2.347619         0.527150
 C        -1.199515         2.222816         1.063148
 H         0.950356         0.506709        -0.211210
 H        -1.585213        -1.027268         0.453119
 H        -2.201250        -0.181228         1.908024
 H        -3.789799         0.550081        -0.368860
 H        -1.231600         0.191382        -1.639202
 H        -2.306648         4.021043        -0.657390
 H        -3.680681         3.096601        -1.133466
 H        -3.393473         2.856710         1.238395
 H        -0.599569         3.046380         0.745757
 H        -1.254071         2.294494         2.199691
