19
Iteration:  2007charge 0 multiplicity 1
 O         0.611073         0.688909         0.498501
 C        -0.782851         1.041222         0.503733
 C        -1.838384        -0.038413         0.968334
 C        -2.792437         0.776749         0.089430
 C        -1.555179         1.047003        -0.903076
 O        -1.626133         2.262466        -1.549720
 C        -2.519690         3.065379        -0.715702
 C        -2.737975         2.313200         0.517613
 C        -1.252131         2.248950         1.205796
 H         1.002658         1.603755         0.592216
 H        -1.576220        -1.016637         0.596802
 H        -2.078283        -0.091709         2.057093
 H        -3.781718         0.354875        -0.196522
 H        -1.214425         0.251941        -1.549046
 H        -2.208476         4.073551        -0.688489
 H        -3.566826         3.087164        -1.221426
 H        -3.527710         2.676149         1.205607
 H        -0.671285         3.204264         0.981586
 H        -1.208464         2.000023         2.316221
