19
Iteration:  3931charge 0 multiplicity 1
 O         0.557357         0.676643         0.591181
 C        -0.798420         0.957084         0.540090
 C        -1.867903        -0.065093         0.971015
 C        -2.756018         0.774042         0.092623
 C        -1.515823         1.065453        -0.907862
 O        -1.686767         2.323614        -1.548433
 C        -2.563878         3.080771        -0.839605
 C        -2.621565         2.327137         0.516073
 C        -1.232187         2.260932         1.216392
 H         1.155294         1.387705         0.215924
 H        -1.553978        -1.038397         0.704741
 H        -2.040364        -0.129102         2.058585
 H        -3.737359         0.505782        -0.286928
 H        -1.365325         0.335197        -1.692922
 H        -2.096314         4.038205        -0.748787
 H        -3.619317         3.142752        -1.192858
 H        -3.452269         2.686488         1.088717
 H        -0.746875         3.154408         1.111003
 H        -1.023064         1.925052         2.267330
