19
Iteration:  2565charge 0 multiplicity 1
 O         0.609000         0.624497         0.670731
 C        -0.714854         1.053313         0.474243
 C        -1.835649        -0.086019         0.969100
 C        -2.758810         0.801416         0.073542
 C        -1.550322         1.080294        -0.892894
 O        -1.707226         2.249982        -1.634128
 C        -2.654230         3.096712        -0.763617
 C        -2.678038         2.246985         0.535282
 C        -1.201997         2.341008         1.200962
 H         1.330148         1.207778         0.330918
 H        -1.621619        -0.948838         0.458826
 H        -2.119656        -0.232702         2.021244
 H        -3.728776         0.558144        -0.272487
 H        -1.161453         0.273537        -1.524924
 H        -2.270508         4.138223        -0.626079
 H        -3.653700         3.290761        -1.267831
 H        -3.461953         2.599982         1.239230
 H        -0.504427         3.210058         0.931398
 H        -1.328531         2.318274         2.238006
