19
Iteration:  3955
 O         0.655542         0.668762         0.552833
 C        -0.793540         0.975313         0.539077
 C        -1.854981        -0.017047         0.902337
 C        -2.816677         0.870145         0.066124
 C        -1.526764         1.014454        -0.906740
 O        -1.608098         2.221884        -1.569410
 C        -2.541468         3.058027        -0.715663
 C        -2.752081         2.338638         0.569651
 C        -1.304682         2.312185         1.188007
 H         1.192176         1.422800         0.314701
 H        -1.783582        -0.989150         0.371509
 H        -1.820224        -0.243162         1.967748
 H        -3.825697         0.609270        -0.042742
 H        -1.256320         0.147890        -1.553560
 H        -2.094931         4.029346        -0.656082
 H        -3.490523         3.062785        -1.177741
 H        -3.604969         2.705152         1.222029
 H        -0.594489         3.121034         1.033845
 H        -1.215138         2.078056         2.342519
