19
Iteration:  3060charge 0 multiplicity 1
 O         0.563066         0.688242         0.472003
 C        -0.788124         0.971824         0.504045
 C        -1.790756        -0.085604         0.994796
 C        -2.766213         0.762183         0.061071
 C        -1.537073         1.054566        -0.865149
 O        -1.612267         2.298944        -1.505082
 C        -2.598797         3.114597        -0.728506
 C        -2.667265         2.312068         0.535001
 C        -1.259867         2.263467         1.176113
 H         0.946818         1.547564         0.254318
 H        -1.688769        -1.109748         0.541830
 H        -2.050826        -0.103388         2.014093
 H        -3.746634         0.413887        -0.289751
 H        -1.210852         0.262680        -1.532556
 H        -2.244160         4.121061        -0.650706
 H        -3.596372         3.167303        -1.334461
 H        -3.382290         2.839084         1.283947
 H        -0.596094         3.124129         1.147032
 H        -1.560318         2.039092         2.238394
