19
Iteration:  4843
 O         0.558521         0.634090         0.586020
 C        -0.755805         0.923778         0.519113
 C        -1.798627        -0.079281         1.014805
 C        -2.754276         0.834668        -0.006757
 C        -1.593800         1.075385        -0.927609
 O        -1.654662         2.283772        -1.513558
 C        -2.548025         3.095100        -0.773147
 C        -2.694639         2.354024         0.523707
 C        -1.218544         2.282337         1.214315
 H         1.192761         1.253324         0.205577
 H        -1.824246        -1.051508         0.579606
 H        -2.197441        -0.029154         2.030027
 H        -3.753828         0.361255        -0.194219
 H        -1.276034         0.244191        -1.561950
 H        -2.224521         4.180781        -0.759829
 H        -3.515835         3.205419        -1.333496
 H        -3.535366         2.712271         1.153320
 H        -0.534758         3.212754         0.974319
 H        -1.243974         2.205623         2.249330
