19
Iteration:  4166charge 0 multiplicity 1
 O         0.567231         0.584178         0.649993
 C        -0.724640         0.972627         0.489407
 C        -1.854585        -0.047844         0.996157
 C        -2.724957         0.798882         0.027172
 C        -1.538075         1.026860        -0.926833
 O        -1.658847         2.385265        -1.522812
 C        -2.664502         3.020620        -0.742031
 C        -2.670885         2.289091         0.517711
 C        -1.220722         2.359522         1.135011
 H         1.264398         1.032283         0.197314
 H        -1.621038        -1.089740         0.721941
 H        -1.965316         0.008744         2.100045
 H        -3.703676         0.536398        -0.417827
 H        -1.278072         0.349520        -1.703042
 H        -2.185839         4.003651        -0.605715
 H        -3.646835         3.135993        -1.351451
 H        -3.444796         2.588067         1.215377
 H        -0.680068         3.211748         0.854937
 H        -1.310946         2.489006         2.270825
