19
Iteration:  2832
 O         0.596619         0.723379         0.705085
 C        -0.769160         0.959317         0.531237
 C        -1.801238        -0.108796         0.995969
 C        -2.726604         0.802912        -0.044660
 C        -1.629419         1.051556        -0.893095
 O        -1.678722         2.297323        -1.566816
 C        -2.666216         3.123600        -0.743377
 C        -2.616894         2.360596         0.570946
 C        -1.198523         2.324003         1.128430
 H         0.968881         0.250897        -0.007998
 H        -1.613231        -1.069304         0.456108
 H        -1.978511        -0.253665         1.998472
 H        -3.589288         0.353080        -0.573588
 H        -1.357931         0.276366        -1.763301
 H        -2.477616         4.142043        -0.795284
 H        -3.579513         2.932807        -1.231196
 H        -3.381555         2.530863         1.402854
 H        -0.447527         2.978056         0.764803
 H        -1.151454         2.197532         2.273366
