19
Iteration:  3876charge 0 multiplicity 1
 O         0.544476         0.565104         0.639663
 C        -0.743511         0.945468         0.589493
 C        -1.806993        -0.033640         0.936526
 C        -2.738947         0.793312         0.076604
 C        -1.568698         1.069896        -0.926821
 O        -1.571949         2.351579        -1.582662
 C        -2.763441         3.082135        -0.753945
 C        -2.581266         2.303252         0.543834
 C        -1.261044         2.311884         1.105757
 H         1.132639         1.298530         0.399772
 H        -1.685910        -0.986251         0.489412
 H        -1.997681        -0.016174         2.032245
 H        -3.706883         0.431436        -0.311883
 H        -1.158015         0.365269        -1.663205
 H        -2.495363         4.103191        -0.711381
 H        -3.757283         3.057584        -1.145089
 H        -3.210825         2.614095         1.343216
 H        -0.704788         3.181405         0.771739
 H        -1.225327         2.427874         2.299610
