19
Iteration:  2571
 O         0.617769         0.620676         0.651161
 C        -0.703692         1.024035         0.482993
 C        -1.856385        -0.006726         0.952352
 C        -2.735882         0.803227         0.110949
 C        -1.522976         1.055494        -0.898850
 O        -1.720229         2.257906        -1.613394
 C        -2.655134         3.075190        -0.772395
 C        -2.670474         2.267131         0.522359
 C        -1.239457         2.348400         1.167967
 H         1.145937         1.409427         0.302797
 H        -1.873306        -1.094820         0.399276
 H        -1.990146        -0.358790         2.033907
 H        -3.784760         0.442655        -0.174706
 H        -1.045361         0.272528        -1.500985
 H        -2.179902         3.985680        -0.304561
 H        -3.478794         3.331706        -1.428868
 H        -3.433077         2.616833         1.198944
 H        -0.600779         3.221006         1.043243
 H        -1.331053         2.130140         2.313095
