19
Iteration:  4153charge 0 multiplicity 1
 O         0.632643         0.578895         0.626954
 C        -0.769388         0.988692         0.587406
 C        -1.837164         0.014748         0.948810
 C        -2.740843         0.810507         0.014891
 C        -1.515381         1.113262        -0.883053
 O        -1.669463         2.293365        -1.548021
 C        -2.608442         3.116294        -0.814175
 C        -2.686722         2.267545         0.575376
 C        -1.250459         2.256613         1.150781
 H         0.930247         1.330636         0.020001
 H        -1.672185        -1.058762         0.681341
 H        -2.170936         0.152458         1.995792
 H        -3.722863         0.337511        -0.261856
 H        -1.298101         0.310518        -1.618947
 H        -2.507184         4.169150        -0.558897
 H        -3.617458         3.053090        -1.297192
 H        -3.615967         2.567828         1.215943
 H        -0.699241         2.971576         0.549468
 H        -0.948726         2.211874         2.328308
