19
Iteration:  1368
 O         0.627939         0.845889         0.644536
 C        -0.741012         1.007898         0.502982
 C        -1.862614        -0.036289         0.860849
 C        -2.819975         0.827857         0.064535
 C        -1.609367         1.006837        -0.918702
 O        -1.674511         2.252246        -1.609850
 C        -2.422413         3.038666        -0.717713
 C        -2.647187         2.350693         0.576367
 C        -1.307724         2.224852         1.185464
 H         0.929720        -0.066241         0.751126
 H        -1.760878        -1.010012         0.325712
 H        -2.182626        -0.263409         1.942599
 H        -3.913457         0.688542        -0.099889
 H        -1.406606         0.121793        -1.639060
 H        -1.838701         3.964976        -0.617327
 H        -3.416063         3.208202        -1.128664
 H        -3.560217         2.524277         1.114534
 H        -0.784220         3.197644         1.067856
 H        -1.212014         1.848092         2.352294
