19
Iteration:  1584
 O         0.627040         0.683361         0.438086
 C        -0.788809         0.990775         0.498436
 C        -1.907064        -0.027438         1.015032
 C        -2.747955         0.836305         0.053980
 C        -1.523839         1.033416        -0.808136
 O        -1.550313         2.320599        -1.434416
 C        -2.584413         3.060384        -0.829727
 C        -2.731101         2.242700         0.527833
 C        -1.246776         2.291396         1.125153
 H         0.890015         0.727555         1.389819
 H        -1.918142        -0.918959         0.491464
 H        -2.248827         0.036911         2.071121
 H        -3.689450         0.338388        -0.355354
 H        -1.229644         0.373568        -1.635619
 H        -2.423632         4.174199        -0.702099
 H        -3.634062         2.993149        -1.386907
 H        -3.519769         2.543768         1.194355
 H        -0.581887         3.202638         0.970271
 H        -1.320905         2.153845         2.181382
