19
Iteration:  3664charge 0 multiplicity 1
 O         0.619515         0.683923         0.595901
 C        -0.746334         0.963680         0.489917
 C        -1.819410        -0.086574         0.946047
 C        -2.728391         0.909000         0.057906
 C        -1.592700         1.037265        -0.859892
 O        -1.658502         2.247482        -1.544907
 C        -2.568447         3.066467        -0.776387
 C        -2.705284         2.280251         0.532799
 C        -1.273794         2.302709         1.181608
 H         1.116697         1.465222         0.321657
 H        -1.876033        -1.030264         0.399282
 H        -2.127775        -0.075937         1.962135
 H        -3.742120         0.464811        -0.146121
 H        -1.396052         0.165528        -1.572512
 H        -2.011665         3.997443        -0.612186
 H        -3.468479         3.294335        -1.263200
 H        -3.544391         2.505433         1.225148
 H        -0.685394         3.227772         0.916513
 H        -1.243448         2.223069         2.362526
