19
Iteration:  1617
 O         0.552610         0.588997         0.597694
 C        -0.755875         0.993785         0.465709
 C        -1.810912        -0.035239         1.009093
 C        -2.672961         0.857429         0.031545
 C        -1.479974         1.069675        -0.890323
 O        -1.689547         2.354006        -1.570765
 C        -2.631683         3.068919        -0.753562
 C        -2.670977         2.262618         0.557886
 C        -1.259123         2.344707         1.113905
 H         0.774734         0.558347         1.573947
 H        -1.766420        -1.000878         0.613206
 H        -2.069192        -0.331630         2.045860
 H        -3.631257         0.372154        -0.316816
 H        -1.191305         0.355316        -1.692658
 H        -2.342410         4.157516        -0.624601
 H        -3.661235         2.952593        -1.296695
 H        -3.493519         2.494463         1.190753
 H        -0.543994         3.199814         0.754642
 H        -1.320721         2.233959         2.177354
