19
Iteration:  4873
 O         0.550902         0.689720         0.541479
 C        -0.784128         0.962338         0.470779
 C        -1.844745        -0.052643         0.998584
 C        -2.801823         0.868317         0.036911
 C        -1.575306         1.008804        -0.909364
 O        -1.506795         2.256291        -1.474743
 C        -2.558105         3.121727        -0.800074
 C        -2.740067         2.302529         0.582486
 C        -1.250479         2.288503         1.176120
 H         1.167733         1.218766         0.020849
 H        -2.005156        -1.072079         0.554543
 H        -2.113127        -0.354807         2.008495
 H        -3.838078         0.479428        -0.057667
 H        -1.219068         0.179110        -1.589606
 H        -2.117436         4.118769        -0.665957
 H        -3.446515         3.058010        -1.383673
 H        -3.484014         2.391399         1.474987
 H        -0.748620         3.284404         0.881763
 H        -1.059970         2.383495         2.296913
