19
Iteration:  1254charge 0 multiplicity 1
 O         0.612345         0.827700         0.672000
 C        -0.759879         0.991455         0.464894
 C        -1.905497        -0.008903         0.906216
 C        -2.794138         0.814262         0.006937
 C        -1.544945         1.052941        -0.889407
 O        -1.661456         2.196065        -1.562202
 C        -2.516768         3.073284        -0.733673
 C        -2.668636         2.302473         0.554541
 C        -1.266774         2.207676         1.214831
 H         0.851348         0.115757         0.057478
 H        -1.668691        -0.961609         0.348726
 H        -2.125123        -0.119567         2.046726
 H        -3.749648         0.597064        -0.462814
 H        -1.302235         0.339764        -1.635264
 H        -1.837137         3.905836        -0.579580
 H        -3.437166         3.340626        -1.219796
 H        -3.409263         2.778404         1.273391
 H        -0.660640         3.180531         1.012375
 H        -1.213965         2.066550         2.386480
