19
Iteration:  4527
 O         0.658977         0.610491         0.624611
 C        -0.743456         0.994561         0.476713
 C        -1.876653         0.047785         0.967224
 C        -2.789362         0.796304         0.001176
 C        -1.571412         0.969515        -0.910995
 O        -1.671749         2.315475        -1.616254
 C        -2.573146         3.127213        -0.743330
 C        -2.682048         2.294516         0.553991
 C        -1.238011         2.291212         1.243706
 H         1.190441         1.396174         0.642503
 H        -1.843470        -1.030594         0.630679
 H        -2.074401        -0.153649         2.030216
 H        -3.913841         0.495846        -0.205783
 H        -1.173556         0.229907        -1.675526
 H        -2.099701         4.101161        -0.608592
 H        -3.567703         2.984347        -1.320398
 H        -3.622664         2.510068         1.160393
 H        -0.580511         3.180212         1.078317
 H        -1.235996         2.034661         2.341772
