19
Iteration:  3898
 O         0.606818         0.542166         0.655517
 C        -0.736012         1.053718         0.477036
 C        -1.852186        -0.021414         0.936180
 C        -2.735271         0.822014        -0.000650
 C        -1.511182         1.067077        -0.842477
 O        -1.653125         2.300735        -1.509008
 C        -2.631599         3.078399        -0.772084
 C        -2.766603         2.238883         0.581497
 C        -1.229712         2.327514         1.104499
 H         1.152815         1.306629         0.326693
 H        -1.476037        -0.940260         0.570575
 H        -1.968495         0.063916         2.021278
 H        -3.728245         0.564181        -0.369287
 H        -1.604815         0.288692        -1.582892
 H        -2.216014         4.058320        -0.760738
 H        -3.621985         3.215875        -1.203311
 H        -3.533894         2.635280         1.197589
 H        -0.718199         3.184588         0.731710
 H        -0.811502         2.152171         2.194066
