19
Iteration:  3442charge 0 multiplicity 1
 O         0.661804         0.532138         0.618818
 C        -0.733667         1.013916         0.455265
 C        -1.804584        -0.021863         0.903086
 C        -2.722929         0.893439        -0.008359
 C        -1.560748         1.008810        -0.889069
 O        -1.673259         2.322221        -1.468347
 C        -2.653887         3.038262        -0.728202
 C        -2.719417         2.329203         0.638422
 C        -1.310332         2.328524         1.105972
 H         1.162281         1.228468         0.206654
 H        -1.527281        -1.057861         0.801878
 H        -1.797644         0.059385         2.029989
 H        -3.593222         0.610975        -0.543222
 H        -1.234127         0.245015        -1.602452
 H        -2.438970         4.181312        -0.943628
 H        -3.678241         2.794515        -1.155709
 H        -3.537731         2.560395         1.376068
 H        -0.679662         3.183886         0.809728
 H        -1.242628         2.254254         2.165545
