19
Iteration:  2643charge 0 multiplicity 1
 O         0.656561         0.640255         0.589872
 C        -0.724055         0.951642         0.503355
 C        -1.830850        -0.069902         0.953943
 C        -2.821331         0.825490         0.069384
 C        -1.565179         0.991257        -0.823124
 O        -1.574405         2.303083        -1.513424
 C        -2.682573         3.112562        -0.850685
 C        -2.768905         2.301630         0.544020
 C        -1.198050         2.354421         1.157416
 H         1.064998         1.404129         0.064376
 H        -1.626153        -1.034353         0.661700
 H        -1.953105        -0.096544         1.994178
 H        -3.748762         0.404551        -0.338378
 H        -1.425050         0.095893        -1.539560
 H        -2.213714         4.034105        -0.684785
 H        -3.651422         3.169639        -1.320873
 H        -3.514781         2.674308         1.338488
 H        -0.631286         3.313815         1.008105
 H        -1.336481         2.150351         2.216734
