19
Iteration:     2charge 0 multiplicity 1
 O         0.593009         0.667719         0.526643
 C        -0.769037         0.971273         0.499853
 C        -1.874509        -0.047116         0.923759
 C        -2.761243         0.828080         0.007567
 C        -1.521892         1.064172        -0.871760
 O        -1.593807         2.329760        -1.505106
 C        -2.564636         3.074506        -0.753872
 C        -2.696445         2.293700         0.553855
 C        -1.263993         2.258142         1.183772
 H         0.878303         0.784180         1.441044
 H        -1.754919        -1.025699         0.531762
 H        -2.158423        -0.112277         2.004703
 H        -3.738865         0.486196        -0.366575
 H        -1.276459         0.253963        -1.589021
 H        -2.222473         4.120685        -0.648955
 H        -3.542161         3.124684        -1.322461
 H        -3.522313         2.634755         1.192546
 H        -0.719064         3.115817         0.890405
 H        -1.321192         2.164289         2.270849
