19
Iteration:  4640
 O         0.556072         0.503985         0.646520
 C        -0.747170         0.967742         0.451668
 C        -1.799305         0.029418         0.918118
 C        -2.738808         0.836596         0.048627
 C        -1.466733         1.106020        -0.877243
 O        -1.602723         2.278263        -1.573974
 C        -2.686347         3.078355        -0.764722
 C        -2.765913         2.333606         0.631704
 C        -1.253297         2.332731         1.148361
 H         1.196180         1.229015         0.711564
 H        -1.682378        -0.922758         0.425238
 H        -2.041195        -0.264939         1.952900
 H        -3.658088         0.533092        -0.418590
 H        -1.358440         0.220722        -1.518785
 H        -2.240707         4.048656        -0.755854
 H        -3.744698         3.162714        -1.319957
 H        -3.459696         2.667571         1.329896
 H        -0.669706         3.100360         0.747255
 H        -0.921703         2.308338         2.281982
