19
Iteration:  3372
 O         0.674731         0.654994         0.568400
 C        -0.714488         0.993644         0.540374
 C        -1.766369         0.014042         0.984251
 C        -2.829379         0.816142         0.012951
 C        -1.562240         1.030325        -0.877711
 O        -1.715664         2.314298        -1.607935
 C        -2.570200         3.128118        -0.718017
 C        -2.721281         2.255977         0.558114
 C        -1.296483         2.190880         1.168051
 H         1.262484         1.364196         0.312876
 H        -1.724776        -1.081453         0.657042
 H        -1.982330        -0.125377         2.034072
 H        -3.899312         0.464901        -0.132602
 H        -1.222949         0.315947        -1.619597
 H        -2.102485         4.098750        -0.563394
 H        -3.513387         3.273321        -1.237902
 H        -3.447829         2.489007         1.306586
 H        -0.696155         3.150452         0.860928
 H        -1.310267         2.206667         2.268110
