19
Iteration:   635
 O         0.640644         0.628258         0.548329
 C        -0.743115         1.015688         0.539022
 C        -1.875970         0.008560         0.959112
 C        -2.753230         0.846898         0.007623
 C        -1.570536         1.001958        -0.841461
 O        -1.605569         2.270234        -1.524930
 C        -2.587818         3.074819        -0.788229
 C        -2.756021         2.243000         0.530141
 C        -1.239299         2.326580         1.194846
 H         1.214309         1.366217         0.356461
 H        -1.694872        -1.009235         0.681203
 H        -2.178409         0.084761         2.040852
 H        -3.854408         0.513248        -0.102215
 H        -1.331124         0.235531        -1.623390
 H        -2.168854         4.081977        -0.555401
 H        -3.557353         3.129533        -1.378949
 H        -3.550069         2.444563         1.115815
 H        -0.597223         3.125405         0.801077
 H        -1.344406         2.255170         2.349582
