19
Iteration:  4817charge 0 multiplicity 1
 O         0.587266         0.540584         0.659789
 C        -0.711482         0.974404         0.498501
 C        -1.866186         0.009886         0.941285
 C        -2.789661         0.864267         0.030277
 C        -1.495500         1.114569        -0.857208
 O        -1.717632         2.323320        -1.668455
 C        -2.587263         3.027531        -0.720022
 C        -2.673667         2.299740         0.542532
 C        -1.195467         2.273477         1.172795
 H         1.257021         1.213383         0.533175
 H        -1.608234        -0.992253         0.456979
 H        -2.193343         0.096846         1.980401
 H        -3.752104         0.443898        -0.251823
 H        -1.370043         0.193035        -1.469306
 H        -2.345092         4.073075        -0.561542
 H        -3.548348         3.143014        -1.169234
 H        -3.445163         2.756601         1.289338
 H        -0.677829         3.252048         0.973869
 H        -1.216973         2.043992         2.327471
