19
Iteration:  3277
 O         0.606645         0.544981         0.616215
 C        -0.696748         1.016571         0.426846
 C        -1.806840        -0.010872         0.922027
 C        -2.732360         0.763754         0.034286
 C        -1.600904         1.084131        -0.958853
 O        -1.625481         2.364269        -1.562273
 C        -2.671478         3.001249        -0.722248
 C        -2.743975         2.237121         0.673937
 C        -1.224129         2.387862         1.177348
 H         1.338723         1.205148         0.428766
 H        -1.663963        -1.151226         0.736412
 H        -2.037098         0.125229         1.992358
 H        -3.746622         0.496818        -0.207018
 H        -1.307826         0.301001        -1.601512
 H        -2.416243         4.147841        -0.577861
 H        -3.563171         3.093619        -1.352647
 H        -3.561737         2.612577         1.291925
 H        -0.842261         3.385281         0.832947
 H        -0.996991         2.289154         2.225374
