19
Iteration:  2227charge 0 multiplicity 1
 O         0.607129         0.571533         0.590049
 C        -0.744132         0.955881         0.477320
 C        -1.820920         0.050985         0.949094
 C        -2.742423         0.820139         0.055583
 C        -1.527343         1.064391        -0.822353
 O        -1.603152         2.372006        -1.515805
 C        -2.677771         2.990482        -0.844169
 C        -2.775225         2.293913         0.607933
 C        -1.177744         2.311436         1.103762
 H         1.024047         1.486345         0.513643
 H        -1.637715        -0.965183         0.637807
 H        -2.212040         0.060622         2.064927
 H        -3.641416         0.175748         0.010284
 H        -1.469991         0.328539        -1.645210
 H        -2.567810         4.049047        -0.749069
 H        -3.668057         2.875256        -1.404042
 H        -3.567426         2.438290         1.424058
 H        -0.545355         3.124778         0.759549
 H        -1.003136         2.299438         2.146423
