19
Iteration:  2484charge 0 multiplicity 1
 O         0.567335         0.664835         0.524952
 C        -0.775789         1.022365         0.455598
 C        -1.841833         0.009716         0.995517
 C        -2.752803         0.772502         0.074082
 C        -1.542601         0.995187        -0.773416
 O        -1.624164         2.311729        -1.575283
 C        -2.586250         3.074350        -0.841150
 C        -2.662818         2.222513         0.602293
 C        -1.271148         2.318673         1.172100
 H         1.178711         1.454737         0.417217
 H        -1.555515        -1.084655         0.578289
 H        -2.075195        -0.169024         2.082687
 H        -3.774014         0.605317        -0.386897
 H        -1.238693         0.227137        -1.467904
 H        -2.283061         4.129639        -0.576729
 H        -3.521550         2.982968        -1.343919
 H        -3.377577         2.648847         1.267558
 H        -0.794929         3.296816         0.990851
 H        -1.266969         2.113899         2.293618
