19
Iteration:  3619charge 0 multiplicity 1
 O         0.631212         0.637888         0.545484
 C        -0.747700         1.001852         0.516857
 C        -1.851260         0.009426         0.989258
 C        -2.746084         0.851320         0.073408
 C        -1.541912         1.014604        -0.966452
 O        -1.647080         2.265012        -1.525300
 C        -2.553669         3.074875        -0.763201
 C        -2.723544         2.269160         0.610044
 C        -1.325179         2.274905         1.206332
 H         1.097217         1.387225         0.189761
 H        -1.681402        -0.891823         0.407573
 H        -1.962883        -0.025532         2.105406
 H        -3.663564         0.642450        -0.427754
 H        -1.325704         0.118603        -1.662718
 H        -2.166641         4.124654        -0.664570
 H        -3.374538         3.081471        -1.392306
 H        -3.656459         2.471597         1.231096
 H        -0.739588         3.205859         0.808505
 H        -1.216845         2.297229         2.364250
