19
Iteration:  3910charge 0 multiplicity 1
 O         0.625433         0.594432         0.633634
 C        -0.711609         0.954474         0.483912
 C        -1.806182         0.040447         0.938257
 C        -2.788881         0.857520         0.034533
 C        -1.581350         1.042422        -0.890259
 O        -1.610917         2.269870        -1.593029
 C        -2.653983         3.106776        -0.708546
 C        -2.698094         2.284944         0.589443
 C        -1.276480         2.283059         1.140680
 H         1.256868         1.221791         0.313321
 H        -1.759318        -0.999707         0.656817
 H        -2.136357         0.026947         1.987730
 H        -3.579233         0.448081        -0.518656
 H        -1.257558         0.188830        -1.501662
 H        -2.225149         4.051820        -0.482190
 H        -3.516074         3.155872        -1.307819
 H        -3.461060         2.453675         1.341489
 H        -0.857373         3.221614         0.742307
 H        -1.312969         2.379653         2.335904
