19
Iteration:  1489
 O         0.570196         0.613373         0.661380
 C        -0.748316         0.932731         0.488573
 C        -1.866485        -0.006837         0.921883
 C        -2.726643         0.858550        -0.028313
 C        -1.518032         1.068866        -0.896132
 O        -1.680960         2.251952        -1.607915
 C        -2.623380         3.052148        -0.697883
 C        -2.649574         2.323997         0.603190
 C        -1.221821         2.339785         1.124333
 H         1.161276         1.229823         1.059536
 H        -1.712949        -1.015958         0.439574
 H        -2.107239         0.032477         2.045187
 H        -3.657789         0.477483        -0.325722
 H        -1.078955         0.331585        -1.621068
 H        -2.244107         4.049498        -0.645506
 H        -3.587296         2.982548        -1.134273
 H        -3.525565         2.577028         1.199131
 H        -0.658448         3.230630         0.934411
 H        -1.382844         2.242025         2.274168
