19
Iteration:  3951charge 0 multiplicity 1
 O         0.636421         0.668210         0.564006
 C        -0.804723         0.996600         0.510109
 C        -1.820941        -0.031447         0.910896
 C        -2.790814         0.872355         0.028389
 C        -1.562437         1.014363        -0.860031
 O        -1.602852         2.223364        -1.593799
 C        -2.545042         3.086658        -0.735250
 C        -2.753758         2.320935         0.599488
 C        -1.279455         2.277437         1.214239
 H         1.139365         1.473305         0.279535
 H        -1.806679        -0.973078         0.412100
 H        -1.866598        -0.195520         2.005380
 H        -3.859969         0.570154        -0.149721
 H        -1.278854         0.155513        -1.441966
 H        -2.130108         4.113459        -0.662630
 H        -3.583835         3.021603        -1.296314
 H        -3.459616         2.714213         1.275211
 H        -0.502654         2.994859         1.050418
 H        -1.318017         2.231305         2.261521
