19
Iteration:   666charge 0 multiplicity 1
 O         0.506973         0.475621         0.815891
 C        -0.701057         1.007573         0.449237
 C        -1.779662        -0.012578         0.951930
 C        -2.625743         0.803339         0.011977
 C        -1.489839         1.142935        -0.923284
 O        -1.775714         2.358256        -1.571449
 C        -2.740147         3.070187        -0.811313
 C        -2.705314         2.293943         0.537300
 C        -1.126530         2.316387         1.098063
 H         1.263475         0.964803         0.385112
 H        -1.654221        -1.008538         0.715719
 H        -2.022689         0.263009         1.994190
 H        -3.687093         0.388835        -0.161880
 H        -1.307295         0.319570        -1.702991
 H        -2.462784         4.154324        -0.734433
 H        -3.671821         2.998703        -1.267768
 H        -3.421572         2.508978         1.336628
 H        -0.404412         3.091684         0.807075
 H        -1.133766         2.328816         2.226302
