19
Iteration:  2703charge 0 multiplicity 1
 O         0.647993         0.573188         0.686404
 C        -0.702203         0.926268         0.559487
 C        -1.806445        -0.063888         0.987440
 C        -2.782931         0.841363         0.024967
 C        -1.593274         1.098234        -0.927502
 O        -1.731287         2.356012        -1.590472
 C        -2.642640         3.034596        -0.740402
 C        -2.625429         2.282106         0.525916
 C        -1.243351         2.314828         1.091807
 H         1.140974         1.425991         0.753324
 H        -1.692213        -1.138154         0.577570
 H        -1.973273        -0.037487         2.092299
 H        -3.763692         0.460179        -0.290437
 H        -1.125652         0.386567        -1.527000
 H        -2.293800         4.103658        -0.853552
 H        -3.722403         3.126543        -1.181782
 H        -3.378085         2.734225         1.081834
 H        -0.636787         3.089975         0.641396
 H        -1.284272         2.589113         2.185489
