19
Iteration:  3535charge 0 multiplicity 1
 O         0.585493         0.635934         0.551465
 C        -0.764017         0.893597         0.600068
 C        -1.803652        -0.013876         0.992741
 C        -2.674831         0.777224         0.052659
 C        -1.542926         1.024256        -0.877207
 O        -1.706218         2.340718        -1.574374
 C        -2.627777         3.135888        -0.751275
 C        -2.725519         2.366978         0.514992
 C        -1.207500         2.230151         1.157334
 H         1.079940         1.506385         0.557591
 H        -1.740877        -1.017696         0.544533
 H        -1.983017        -0.295979         1.971372
 H        -3.714660         0.461324        -0.270977
 H        -1.111075         0.371114        -1.611152
 H        -2.304351         4.139614        -0.600667
 H        -3.593682         3.214673        -1.408328
 H        -3.559079         2.562420         1.144258
 H        -0.568110         2.939639         0.789306
 H        -1.236556         2.335750         2.252460
