19
Iteration:  4443
 O         0.614421         0.594358         0.615479
 C        -0.738931         1.011601         0.527525
 C        -1.873038        -0.050335         0.996283
 C        -2.771794         0.757283         0.033042
 C        -1.537610         1.080811        -0.889302
 O        -1.589950         2.297323        -1.598325
 C        -2.699273         3.151880        -0.783168
 C        -2.668997         2.267338         0.557237
 C        -1.232673         2.304408         1.206404
 H         1.156152         1.131705        -0.030339
 H        -1.592410        -1.102373         0.670610
 H        -2.114837         0.028958         2.094085
 H        -3.806721         0.610838        -0.375670
 H        -1.337878         0.276423        -1.750727
 H        -2.318318         4.182791        -0.401522
 H        -3.491305         3.084540        -1.594090
 H        -3.441974         2.649321         1.226376
 H        -0.596379         3.227296         0.998733
 H        -1.394196         2.180434         2.387041
