19
Iteration:  1732
 O         0.608625         0.716130         0.479205
 C        -0.786997         0.897793         0.514334
 C        -1.815158        -0.035568         0.974856
 C        -2.737633         0.812650         0.037963
 C        -1.542136         0.994220        -0.882542
 O        -1.614525         2.342721        -1.492185
 C        -2.626572         3.067297        -0.818337
 C        -2.644336         2.344970         0.558183
 C        -1.291855         2.274480         1.191744
 H         1.178621         0.869614         1.282070
 H        -1.846855        -1.154712         0.704363
 H        -2.132397        -0.019277         1.999508
 H        -3.704099         0.491123        -0.319593
 H        -1.481389         0.214126        -1.649051
 H        -2.321397         4.113069        -0.672829
 H        -3.706156         3.075873        -1.383683
 H        -3.452563         2.639195         1.320237
 H        -0.627189         3.099515         0.964905
 H        -1.287388         2.279549         2.312709
