19
Iteration:  4754charge 0 multiplicity 1
 O         0.604132         0.582341         0.591175
 C        -0.741799         0.951188         0.492126
 C        -1.851953        -0.000120         0.947749
 C        -2.769071         0.881230        -0.042038
 C        -1.535140         0.972980        -0.880338
 O        -1.575098         2.310884        -1.472185
 C        -2.645741         3.086320        -0.748450
 C        -2.676699         2.299401         0.619202
 C        -1.226672         2.309154         1.135863
 H         1.027948         1.358976         0.163114
 H        -1.725210        -1.090671         0.653822
 H        -2.358343         0.025439         1.936547
 H        -3.837379         0.528753        -0.248767
 H        -1.484978         0.193915        -1.705596
 H        -2.393834         4.251113        -0.851870
 H        -3.713030         3.045666        -1.334581
 H        -3.624558         2.710848         1.199090
 H        -0.565615         3.266636         1.041977
 H        -1.231874         2.226841         2.230746
