19
Iteration:  2665charge 0 multiplicity 1
 O         0.553836         0.557618         0.674088
 C        -0.780065         1.020888         0.509992
 C        -1.759868        -0.008595         1.004938
 C        -2.706408         0.826641         0.050588
 C        -1.558203         1.111872        -0.926746
 O        -1.655331         2.329646        -1.591609
 C        -2.658136         3.015100        -0.760850
 C        -2.647345         2.308939         0.533800
 C        -1.269617         2.280814         1.128847
 H         1.173907         1.056028         0.177684
 H        -1.675762        -0.991807         0.709121
 H        -1.844732        -0.000795         2.080294
 H        -3.695816         0.453936        -0.263758
 H        -1.100347         0.371961        -1.700591
 H        -2.379171         4.028823        -0.623410
 H        -3.666855         2.900524        -1.064163
 H        -3.476720         2.650366         1.264141
 H        -0.835406         3.209655         0.672887
 H        -1.137575         2.272007         2.215783
