19
Iteration:  1898
 O         0.625165         0.623567         0.643847
 C        -0.753471         0.957008         0.534664
 C        -1.790456        -0.014408         0.944129
 C        -2.705864         0.841966         0.094356
 C        -1.570425         0.978027        -0.917522
 O        -1.724239         2.356636        -1.629191
 C        -2.607285         3.114111        -0.770430
 C        -2.692926         2.313520         0.578260
 C        -1.271821         2.238393         1.160483
 H         1.091059         1.473410         0.635876
 H        -1.764978        -0.976505         0.415399
 H        -1.948080        -0.239881         2.034141
 H        -3.577605         0.461610        -0.526567
 H        -1.327872         0.207526        -1.653323
 H        -2.141579         4.096847        -0.628672
 H        -3.550414         3.186713        -1.224637
 H        -3.505815         2.543532         1.335645
 H        -0.650365         3.134539         0.820994
 H        -1.151026         2.101505         2.342243
