19
Iteration:  4870
 O         0.566644         0.689606         0.541299
 C        -0.779903         0.960075         0.463780
 C        -1.847820        -0.030895         0.996117
 C        -2.824796         0.870841         0.063857
 C        -1.570518         0.996963        -0.911737
 O        -1.504216         2.264356        -1.484260
 C        -2.554515         3.132082        -0.798770
 C        -2.731408         2.276160         0.603557
 C        -1.268227         2.287486         1.158244
 H         1.228608         1.176349         0.061162
 H        -2.031942        -1.081633         0.491855
 H        -2.086997        -0.393732         2.029551
 H        -3.843904         0.517434        -0.147895
 H        -1.161650         0.123571        -1.493692
 H        -2.134173         4.130351        -0.695375
 H        -3.514499         3.157632        -1.470437
 H        -3.465806         2.390980         1.452642
 H        -0.806731         3.184242         0.925507
 H        -1.069436         2.436882         2.307622
