19
Iteration:  1818
 O         0.619744         0.698367         0.470798
 C        -0.762698         1.022183         0.468971
 C        -1.825931         0.024916         0.985359
 C        -2.763522         0.839182         0.034430
 C        -1.566551         1.027050        -0.923080
 O        -1.565425         2.232537        -1.510591
 C        -2.643731         3.030560        -0.702285
 C        -2.666862         2.275673         0.572200
 C        -1.294549         2.340501         1.193963
 H         0.715279         0.279446         1.323335
 H        -1.605510        -1.004445         0.494685
 H        -2.115135        -0.040126         2.016873
 H        -3.770077         0.685790        -0.249527
 H        -1.433798         0.289498        -1.762995
 H        -2.335544         4.026224        -0.638931
 H        -3.487806         2.995253        -1.277676
 H        -3.579996         2.516523         1.182712
 H        -0.691316         3.340945         0.937206
 H        -1.089548         2.116385         2.322777
