19
Iteration:  4649
 O         0.568780         0.525631         0.666087
 C        -0.766157         1.021300         0.495513
 C        -1.830298         0.002417         0.890196
 C        -2.703992         0.827352         0.036816
 C        -1.567826         1.065613        -0.893463
 O        -1.667708         2.308276        -1.556223
 C        -2.629832         3.078516        -0.791538
 C        -2.712942         2.358507         0.613929
 C        -1.187512         2.278947         1.120834
 H         1.197872         1.247240         0.793208
 H        -1.652976        -0.971466         0.388256
 H        -2.012761        -0.148372         2.012008
 H        -3.707439         0.277099        -0.105137
 H        -1.063615         0.339538        -1.614403
 H        -2.244164         4.055992        -0.576843
 H        -3.522092         3.062946        -1.428483
 H        -3.501306         2.614790         1.293920
 H        -0.597840         3.138920         0.798811
 H        -1.349489         2.263538         2.285593
