19
Iteration:  4943charge 0 multiplicity 1
 O         0.569062         0.540149         0.712189
 C        -0.790061         1.012686         0.510036
 C        -1.854514        -0.015947         0.905298
 C        -2.756476         0.790825         0.087200
 C        -1.510911         1.112921        -0.907785
 O        -1.687113         2.293124        -1.603359
 C        -2.630214         3.183028        -0.737388
 C        -2.676987         2.257322         0.554698
 C        -1.182753         2.279684         1.072410
 H         1.197625         1.235543         0.535360
 H        -1.536916        -0.956921         0.468952
 H        -1.861120        -0.129866         1.998762
 H        -3.825765         0.527854        -0.083671
 H        -1.190503         0.257979        -1.533950
 H        -2.124043         4.165966        -0.557328
 H        -3.574481         3.074986        -1.237522
 H        -3.523903         2.517971         1.155575
 H        -0.621365         3.251008         0.842564
 H        -1.049794         2.090329         2.129455
