19
Iteration:  2620charge 0 multiplicity 1
 O         0.559592         0.748750         0.491611
 C        -0.770426         0.959624         0.504243
 C        -1.890240         0.001480         0.978399
 C        -2.784265         0.829750         0.104503
 C        -1.488031         1.004061        -0.881240
 O        -1.605849         2.277340        -1.511462
 C        -2.501728         3.016548        -0.780832
 C        -2.696896         2.275696         0.578235
 C        -1.294079         2.265624         1.181542
 H         0.926124         1.587169         0.257940
 H        -1.688521        -0.920613         0.569196
 H        -2.162470        -0.214439         2.006670
 H        -3.749882         0.450817        -0.122045
 H        -1.215288         0.178541        -1.587677
 H        -2.129491         4.038542        -0.764724
 H        -3.514433         2.899539        -1.168999
 H        -3.543134         2.748596         1.164700
 H        -0.590231         3.094048         0.785743
 H        -1.299529         2.302359         2.232222
