19
Iteration:  1615charge 0 multiplicity 1
 O         0.573356         0.581853         0.595122
 C        -0.770410         0.989496         0.479092
 C        -1.804069        -0.029612         1.014962
 C        -2.682576         0.864298         0.029176
 C        -1.486912         1.049853        -0.900154
 O        -1.676819         2.357279        -1.564663
 C        -2.630136         3.064557        -0.762651
 C        -2.683739         2.255478         0.567667
 C        -1.269110         2.352830         1.106863
 H         0.808730         0.547847         1.530411
 H        -1.779201        -1.024929         0.551356
 H        -2.004929        -0.256248         2.064541
 H        -3.670777         0.356051        -0.392427
 H        -1.200984         0.401489        -1.740304
 H        -2.376976         4.171186        -0.641962
 H        -3.596523         2.989695        -1.209367
 H        -3.546854         2.551920         1.225815
 H        -0.560362         3.266490         0.765976
 H        -1.307217         2.228257         2.206572
