19
Iteration:   241
 O         0.632787         0.653590         0.453146
 C        -0.785852         1.020766         0.462859
 C        -1.847716         0.056582         0.992089
 C        -2.759912         0.869530         0.100045
 C        -1.534151         1.009632        -0.855343
 O        -1.535583         2.303272        -1.512814
 C        -2.611472         3.035544        -0.782936
 C        -2.713134         2.291766         0.526937
 C        -1.313743         2.269529         1.172129
 H         0.839252         0.492325         1.383368
 H        -1.579196        -0.950262         0.642970
 H        -2.094886         0.033262         2.101626
 H        -3.752497         0.494931        -0.207621
 H        -1.347937         0.211567        -1.640718
 H        -2.201874         3.981618        -0.556030
 H        -3.597326         3.006132        -1.388008
 H        -3.552972         2.472034         1.172710
 H        -0.843447         3.217106         1.092592
 H        -1.441198         1.914760         2.227219
