19
Iteration:   640
 O         0.662901         0.572589         0.588737
 C        -0.740218         1.018363         0.530407
 C        -1.870479         0.010412         1.030073
 C        -2.762618         0.837649         0.002385
 C        -1.532829         0.999122        -0.896459
 O        -1.645244         2.330163        -1.564248
 C        -2.608875         3.079510        -0.755577
 C        -2.737842         2.258367         0.487363
 C        -1.252730         2.292797         1.186607
 H         1.157709         1.406619         0.333816
 H        -1.557579        -1.027166         0.659242
 H        -2.171560         0.171547         2.051368
 H        -3.780449         0.620988        -0.132609
 H        -1.230368         0.140252        -1.481191
 H        -2.278665         4.100096        -0.584656
 H        -3.600345         3.066475        -1.280098
 H        -3.639284         2.488786         1.232987
 H        -0.612658         3.118697         0.827514
 H        -1.315798         2.326841         2.235064
