19
Iteration:   610
 O         0.547098         0.811841         0.458678
 C        -0.869664         0.985527         0.500527
 C        -1.841011        -0.139846         0.992119
 C        -2.826983         0.832180         0.113670
 C        -1.562803         0.934577        -0.813734
 O        -1.494999         2.264001        -1.533556
 C        -2.451323         3.053060        -0.765734
 C        -2.694851         2.391671         0.543655
 C        -1.331635         2.238785         1.171768
 H         0.930947         1.672366         0.318569
 H        -1.506265        -1.090755         0.564040
 H        -1.911911        -0.426256         2.054352
 H        -3.937838         0.588415        -0.127988
 H        -1.225535         0.113529        -1.545268
 H        -2.140782         4.136116        -0.723532
 H        -3.403915         2.981441        -1.211222
 H        -3.516842         2.972064         1.142156
 H        -0.594866         3.016264         0.834620
 H        -1.402660         2.088808         2.256529
