19
Iteration:  1514
 O         0.598767         0.690328         0.605501
 C        -0.732550         0.956330         0.497992
 C        -1.863520        -0.034221         1.007199
 C        -2.772908         0.761093         0.002433
 C        -1.599290         1.068451        -0.864436
 O        -1.713795         2.288908        -1.647618
 C        -2.493453         3.144287        -0.825407
 C        -2.666689         2.270125         0.577425
 C        -1.247109         2.247062         1.242697
 H         1.182146         1.104226         1.257168
 H        -1.661910        -1.044088         0.576295
 H        -1.925001        -0.012558         2.014207
 H        -3.639841         0.250315        -0.421444
 H        -1.328838         0.365574        -1.638825
 H        -2.023726         4.191595        -0.739902
 H        -3.475961         3.371061        -1.229148
 H        -3.619485         2.567088         1.106570
 H        -0.702402         3.197356         0.976495
 H        -1.277792         2.198665         2.384469
