19
Iteration:  1917charge 0 multiplicity 1
 O         0.591798         0.598171         0.743785
 C        -0.777536         0.987240         0.498510
 C        -1.794569        -0.127340         0.903514
 C        -2.757990         0.782168         0.053679
 C        -1.480100         1.117129        -0.930566
 O        -1.778704         2.309972        -1.583698
 C        -2.649540         3.107136        -0.712220
 C        -2.634441         2.309617         0.525899
 C        -1.189203         2.330783         1.143583
 H         1.180312         1.065750         0.098812
 H        -1.467716        -1.147822         0.465896
 H        -2.014625        -0.147842         1.945833
 H        -3.746565         0.449865        -0.231548
 H        -1.266912         0.286657        -1.623573
 H        -2.187933         4.070093        -0.704076
 H        -3.586288         3.245399        -1.321200
 H        -3.435344         2.647429         1.267094
 H        -0.673582         3.317969         0.764537
 H        -1.231161         2.414787         2.267455
