19
Iteration:  1267charge 0 multiplicity 1
 O         0.653954         0.767846         0.688303
 C        -0.752440         0.966984         0.519526
 C        -1.917099        -0.105996         0.924666
 C        -2.762315         0.867112         0.006581
 C        -1.544148         0.985815        -0.881459
 O        -1.648446         2.316123        -1.586483
 C        -2.562585         3.136674        -0.778556
 C        -2.698469         2.327703         0.600685
 C        -1.232137         2.251680         1.144337
 H         1.044744         0.161169         0.012400
 H        -1.840873        -1.123186         0.633163
 H        -2.274530        -0.219040         2.033710
 H        -3.702850         0.423719        -0.404272
 H        -1.279978         0.125693        -1.443399
 H        -2.392456         4.191636        -0.694541
 H        -3.525012         3.062727        -1.336330
 H        -3.539094         2.496080         1.249922
 H        -0.504732         3.109051         0.809749
 H        -1.255110         2.098179         2.357625
