19
Iteration:  3654
 O         0.575110         0.707126         0.566566
 C        -0.784699         0.953090         0.501776
 C        -1.813152        -0.057638         1.017771
 C        -2.751543         0.734617         0.034422
 C        -1.571251         1.008256        -0.904362
 O        -1.659669         2.273883        -1.571172
 C        -2.521021         3.130504        -0.787592
 C        -2.678544         2.387007         0.596134
 C        -1.288582         2.266677         1.201631
 H         1.102914         1.447139         0.312121
 H        -1.653301        -1.088433         0.613497
 H        -2.007167        -0.244592         2.035611
 H        -3.809171         0.347528        -0.305662
 H        -1.216514         0.381032        -1.751279
 H        -2.077228         4.113558        -0.678872
 H        -3.447139         3.157372        -1.289365
 H        -3.519953         2.655884         1.253719
 H        -0.626410         3.064490         0.836414
 H        -1.305981         2.215264         2.403603
