19
Iteration:    30charge 0 multiplicity 1
 O         0.663667         0.565185         0.778434
 C        -0.737715         0.914807         0.495230
 C        -1.859915         0.004483         0.926730
 C        -2.744550         0.834195         0.011976
 C        -1.537714         1.112837        -1.044655
 O        -1.718952         2.397504        -1.499928
 C        -2.758701         3.051348        -0.790508
 C        -2.646687         2.320972         0.576213
 C        -1.107614         2.250825         1.064450
 H         0.734289         0.578208         1.749889
 H        -1.712446        -1.086536         0.427466
 H        -1.927525        -0.226763         1.978615
 H        -3.732090         0.619268        -0.367996
 H        -1.247721         0.479687        -1.859011
 H        -2.512299         4.124297        -0.634438
 H        -3.691271         3.225303        -1.425530
 H        -3.356429         2.595909         1.351665
 H        -0.554614         3.189572         0.575015
 H        -1.213943         2.043266         2.149010
