19
Iteration:  2997charge 0 multiplicity 1
 O         0.611199         0.628056         0.655546
 C        -0.729914         0.945285         0.534216
 C        -1.783294        -0.063366         0.941359
 C        -2.724507         0.833273         0.056789
 C        -1.517335         1.146596        -0.951107
 O        -1.670154         2.353457        -1.623073
 C        -2.695495         3.078479        -0.751129
 C        -2.737190         2.293898         0.643232
 C        -1.196786         2.254880         1.211943
 H         1.047016         0.734526        -0.235572
 H        -1.795223        -1.035208         0.513555
 H        -2.072827        -0.075591         1.983488
 H        -3.604498         0.369480        -0.369447
 H        -1.420740         0.246097        -1.728316
 H        -2.354711         4.082136        -0.687522
 H        -3.623315         3.184512        -1.281417
 H        -3.716540         2.524265         1.230387
 H        -0.600601         3.045234         0.804557
 H        -1.114153         2.172992         2.307379
