19
Iteration:  2729charge 0 multiplicity 1
 O         0.558851         0.691580         0.639205
 C        -0.740577         1.012984         0.398148
 C        -1.849791        -0.010724         0.955052
 C        -2.746120         0.827089         0.096929
 C        -1.599365         1.014477        -0.910727
 O        -1.631825         2.265686        -1.525850
 C        -2.638469         3.073806        -0.781488
 C        -2.676237         2.276322         0.577550
 C        -1.185598         2.254430         1.145344
 H         1.123379         1.484813         0.711267
 H        -1.725763        -0.949283         0.417917
 H        -2.008401        -0.209078         2.114122
 H        -3.677511         0.346580        -0.175997
 H        -1.189767         0.156046        -1.528095
 H        -2.080294         4.067938        -0.862924
 H        -3.586406         3.247504        -1.312099
 H        -3.545408         2.699831         1.176230
 H        -0.646349         3.250894         0.973865
 H        -1.081263         2.022607         2.175716
