19
Iteration:   661
 O         0.515109         0.495635         0.773455
 C        -0.694879         0.966706         0.457733
 C        -1.801564         0.004073         1.005183
 C        -2.648997         0.770872         0.016944
 C        -1.476387         1.144879        -0.909583
 O        -1.758774         2.362000        -1.596030
 C        -2.712125         3.079754        -0.817790
 C        -2.682869         2.300162         0.556282
 C        -1.170255         2.320784         1.106509
 H         1.234535         1.001466         0.387481
 H        -1.742786        -1.134517         0.703410
 H        -1.982105         0.311586         2.030386
 H        -3.506160         0.254950        -0.295855
 H        -1.318354         0.553873        -1.777851
 H        -2.408207         4.110277        -0.702424
 H        -3.812479         2.983499        -1.257149
 H        -3.421088         2.647420         1.412648
 H        -0.495332         3.138580         0.787143
 H        -1.224430         2.177693         2.166052
