19
Iteration:  3440
 O         0.663973         0.533554         0.622248
 C        -0.726959         1.023082         0.445235
 C        -1.811551        -0.034736         0.916501
 C        -2.733015         0.907185         0.010065
 C        -1.549591         1.007236        -0.894636
 O        -1.682011         2.338303        -1.458081
 C        -2.661023         3.032790        -0.747258
 C        -2.728489         2.327672         0.625164
 C        -1.293568         2.320349         1.108062
 H         1.252268         1.214314         0.261785
 H        -1.541722        -1.161581         0.756085
 H        -1.811282         0.022517         2.042307
 H        -3.599630         0.565281        -0.543378
 H        -1.290967         0.254890        -1.566206
 H        -2.470896         4.148246        -0.952530
 H        -3.639385         2.828433        -1.153986
 H        -3.514591         2.552968         1.310986
 H        -0.613395         3.247202         0.787522
 H        -1.249402         2.190314         2.151467
