19
Iteration:  1536charge 0 multiplicity 1
 O         0.629250         0.730381         0.504771
 C        -0.734670         1.035321         0.447229
 C        -1.898586        -0.056830         0.965447
 C        -2.794382         0.887085         0.081799
 C        -1.483626         0.951539        -0.855107
 O        -1.637655         2.217573        -1.527386
 C        -2.539252         3.084961        -0.796656
 C        -2.691298         2.319863         0.542357
 C        -1.352790         2.238561         1.206632
 H         1.134681         1.067612         1.276153
 H        -1.609975        -0.941036         0.363012
 H        -2.031195        -0.179467         1.979426
 H        -3.775565         0.505886        -0.257534
 H        -1.390225         0.233860        -1.648696
 H        -1.940136         3.952140        -0.397686
 H        -3.399316         3.462632        -1.276512
 H        -3.575734         2.786664         1.084285
 H        -0.663816         3.134146         1.069940
 H        -1.494938         2.098838         2.334484
