19
Iteration:  4243charge 0 multiplicity 1
 O         0.613681         0.655824         0.565917
 C        -0.766969         0.976614         0.463267
 C        -1.864842        -0.035154         0.968787
 C        -2.765840         0.848230         0.039479
 C        -1.596329         1.041760        -0.860609
 O        -1.657443         2.264712        -1.569464
 C        -2.495194         3.049034        -0.715824
 C        -2.693767         2.275046         0.550654
 C        -1.267912         2.334598         1.179071
 H         1.088495         1.505220         0.659567
 H        -1.687522        -1.031312         0.586075
 H        -1.962626         0.047743         2.073479
 H        -3.715765         0.500684        -0.352219
 H        -1.353429         0.366357        -1.607433
 H        -2.198288         4.051608        -0.518399
 H        -3.340763         3.134337        -1.282736
 H        -3.552882         2.520036         1.077761
 H        -0.875916         3.282708         0.982352
 H        -1.107632         1.826058         2.211061
