19
Iteration:  2794
 O         0.655825         0.667257         0.622281
 C        -0.749735         1.008622         0.433936
 C        -1.785839        -0.012117         0.995885
 C        -2.768471         0.796651         0.015047
 C        -1.624449         1.019860        -0.895843
 O        -1.547214         2.284736        -1.567125
 C        -2.599965         3.034361        -0.726966
 C        -2.741982         2.326379         0.626430
 C        -1.297457         2.321642         1.196664
 H         1.026191         0.660863        -0.309857
 H        -1.728767        -0.989063         0.513338
 H        -2.292713        -0.059060         2.079329
 H        -3.670663         0.530796        -0.546298
 H        -1.484092         0.172480        -1.539176
 H        -2.287475         4.159977        -0.727691
 H        -3.630079         3.114752        -1.214298
 H        -3.612865         2.491472         1.282228
 H        -0.810464         3.295432         0.873744
 H        -1.239364         2.263650         2.244130
