19
Iteration:  1823charge 0 multiplicity 1
 O         0.621591         0.712608         0.433221
 C        -0.733916         1.012287         0.465099
 C        -1.875513         0.006770         0.982582
 C        -2.761668         0.809984         0.046618
 C        -1.525937         0.967933        -0.891312
 O        -1.566365         2.260596        -1.480424
 C        -2.623071         3.038109        -0.714245
 C        -2.670074         2.288395         0.572216
 C        -1.299069         2.371159         1.187740
 H         0.639100         0.317804         1.346623
 H        -1.575190        -0.891844         0.509194
 H        -2.137514        -0.229066         2.060881
 H        -3.849013         0.522345        -0.220218
 H        -1.539835         0.358424        -1.786162
 H        -2.217960         4.122697        -0.679099
 H        -3.610341         3.038463        -1.387884
 H        -3.523837         2.644154         1.182766
 H        -0.851829         3.257443         1.004247
 H        -1.153662         2.173266         2.207642
