19
Iteration:  3328
 O         0.715049         0.673481         0.539399
 C        -0.784958         1.000556         0.498698
 C        -1.836453         0.003850         0.903244
 C        -2.821966         0.875548         0.069518
 C        -1.616216         1.078846        -0.848361
 O        -1.641948         2.280540        -1.524796
 C        -2.584258         3.009024        -0.731620
 C        -2.700195         2.269829         0.578657
 C        -1.280116         2.229740         1.221487
 H         1.207157         1.359453         0.082492
 H        -1.444189        -0.943216         0.440009
 H        -1.990345        -0.314188         1.928821
 H        -3.687256         0.469662        -0.548083
 H        -1.354653         0.157346        -1.404280
 H        -2.229616         4.045102        -0.635540
 H        -3.586481         2.955027        -1.215110
 H        -3.514227         2.757035         1.060554
 H        -0.865597         3.186619         0.767487
 H        -1.030979         2.270000         2.269082
