19
Iteration:   979charge 0 multiplicity 1
 O         0.573201         0.591970         0.773037
 C        -0.728549         0.952728         0.469379
 C        -1.858527        -0.081889         0.889105
 C        -2.744145         0.859182        -0.017427
 C        -1.524498         1.028975        -0.884310
 O        -1.614895         2.374529        -1.466790
 C        -2.697367         3.039869        -0.761830
 C        -2.678654         2.340463         0.629089
 C        -1.226507         2.335018         0.983052
 H         1.219838         1.116734         0.308821
 H        -1.729817        -1.070568         0.363641
 H        -1.958944        -0.187608         1.943209
 H        -3.683287         0.457819        -0.364104
 H        -1.346675         0.273985        -1.674735
 H        -2.383361         4.087514        -0.656897
 H        -3.657208         2.869784        -1.292142
 H        -3.454455         2.648896         1.405433
 H        -0.585510         3.199118         0.519114
 H        -1.071633         2.266259         2.146218
