19
Iteration:  1347charge 0 multiplicity 1
 O         0.604755         0.760666         0.620943
 C        -0.730770         0.935064         0.491711
 C        -1.886489        -0.069419         0.964094
 C        -2.792775         0.785407         0.011921
 C        -1.514723         1.051503        -0.872258
 O        -1.676742         2.288860        -1.591524
 C        -2.611389         3.182366        -0.794116
 C        -2.639592         2.337418         0.551362
 C        -1.237753         2.223437         1.219980
 H         1.003793        -0.057030         0.928809
 H        -1.756606        -1.061921         0.520342
 H        -2.044038        -0.110355         2.018289
 H        -3.624702         0.384872        -0.606102
 H        -1.283171         0.161296        -1.589164
 H        -2.117317         4.104955        -0.452253
 H        -3.570762         3.297568        -1.366281
 H        -3.466529         2.645511         1.215731
 H        -0.615509         3.048880         0.859062
 H        -1.228676         2.270666         2.398979
