19
Iteration:  1990
 O         0.608146         0.689670         0.451386
 C        -0.750524         0.967039         0.442721
 C        -1.863382        -0.022878         0.944887
 C        -2.787450         0.834289         0.034467
 C        -1.521118         0.954942        -0.844368
 O        -1.549790         2.275962        -1.447291
 C        -2.592837         2.998108        -0.765659
 C        -2.708010         2.284805         0.659262
 C        -1.348265         2.391498         1.187733
 H         1.200819         1.479059         0.257179
 H        -1.843186        -1.026880         0.456566
 H        -1.996699        -0.078362         2.040511
 H        -3.737441         0.506106        -0.393443
 H        -1.219565         0.176104        -1.605292
 H        -2.157499         4.041334        -0.534354
 H        -3.486250         3.029536        -1.334382
 H        -3.530569         2.665184         1.197513
 H        -0.840255         3.274241         0.941581
 H        -1.278006         2.402276         2.274566
