19
Iteration:   225
 O         0.595854         0.660816         0.562035
 C        -0.733628         0.952000         0.475627
 C        -1.874961        -0.034506         0.989467
 C        -2.764691         0.804189         0.001331
 C        -1.537435         1.045890        -0.920802
 O        -1.587206         2.361052        -1.425299
 C        -2.685424         3.037354        -0.798363
 C        -2.673644         2.306353         0.601182
 C        -1.203025         2.326008         1.092851
 H         0.847121         0.334593         1.455199
 H        -1.874035        -1.087461         0.504664
 H        -2.129845        -0.005447         2.044169
 H        -3.684049         0.401341        -0.429788
 H        -1.318292         0.247457        -1.590992
 H        -2.563666         4.155154        -0.996048
 H        -3.536655         2.781343        -1.362745
 H        -3.455380         2.684116         1.324347
 H        -0.537700         3.186932         0.699750
 H        -1.024132         2.526587         2.141168
