19
Iteration:  2145charge 0 multiplicity 1
 O         0.647645         0.717870         0.563606
 C        -0.791266         0.977108         0.512219
 C        -1.821300        -0.067307         1.008104
 C        -2.772657         0.796101         0.075920
 C        -1.612392         1.013960        -0.882176
 O        -1.638600         2.243761        -1.543341
 C        -2.631767         3.121740        -0.814672
 C        -2.713536         2.331331         0.484297
 C        -1.202889         2.266294         1.260329
 H         1.150700         1.468263         0.243382
 H        -1.604746        -1.055627         0.442176
 H        -2.024695        -0.252008         2.033613
 H        -3.745379         0.347118        -0.250735
 H        -1.373738         0.267231        -1.660758
 H        -1.987080         4.079445        -0.652807
 H        -3.486466         3.361890        -1.356686
 H        -3.518029         2.689607         1.190856
 H        -0.632599         3.125191         0.840249
 H        -1.191057         2.126553         2.393473
