19
Iteration:  3286
 O         0.517536         0.590264         0.611033
 C        -0.745459         0.996637         0.447054
 C        -1.744087         0.052807         0.959061
 C        -2.755933         0.773196        -0.008228
 C        -1.560836         1.079530        -0.882475
 O        -1.659956         2.382789        -1.505495
 C        -2.626989         2.994895        -0.721470
 C        -2.725303         2.246379         0.597790
 C        -1.184828         2.297705         1.130198
 H         1.094368         1.350494         0.284430
 H        -1.491063        -1.066776         0.678022
 H        -1.881953         0.084207         2.059120
 H        -3.668123         0.338096        -0.491706
 H        -1.479272         0.377216        -1.663068
 H        -2.304263         4.127442        -0.570063
 H        -3.629440         2.790880        -1.210050
 H        -3.458362         2.577442         1.290122
 H        -0.502677         3.134230         0.798989
 H        -1.099511         2.240233         2.148270
