19
Iteration:  1265charge 0 multiplicity 1
 O         0.648213         0.780239         0.689309
 C        -0.743572         0.997288         0.510762
 C        -1.915884        -0.082785         0.924306
 C        -2.767140         0.852480         0.007300
 C        -1.554182         0.985636        -0.887479
 O        -1.656086         2.293675        -1.584993
 C        -2.550727         3.122470        -0.762808
 C        -2.704813         2.343594         0.593935
 C        -1.232347         2.221112         1.154279
 H         1.004765         0.145244        -0.006058
 H        -1.819590        -1.157978         0.556061
 H        -2.284222        -0.226863         2.049631
 H        -3.688972         0.500657        -0.465241
 H        -1.240075         0.162267        -1.457871
 H        -2.315315         4.184521        -0.676126
 H        -3.409943         3.081781        -1.381511
 H        -3.533329         2.498679         1.346771
 H        -0.522547         3.087646         0.827178
 H        -1.254528         2.092630         2.331786
