19
Iteration:  1094
 O         0.724458         0.885720         0.638939
 C        -0.744903         0.970115         0.451802
 C        -1.958873        -0.107751         0.940069
 C        -2.830779         0.826535         0.029631
 C        -1.592455         1.060327        -0.895959
 O        -1.644983         2.238743        -1.574033
 C        -2.466581         3.080244        -0.757411
 C        -2.694255         2.308500         0.536819
 C        -1.289288         2.196214         1.225585
 H         0.858938        -0.051318         0.663155
 H        -1.686985        -1.095004         0.484178
 H        -2.092154        -0.122736         2.091514
 H        -3.867813         0.578275        -0.252368
 H        -1.515508         0.284541        -1.692899
 H        -1.946970         4.019924        -0.595062
 H        -3.377209         3.226007        -1.195910
 H        -3.410752         2.753850         1.177063
 H        -0.860453         3.092584         0.921816
 H        -1.258851         2.138561         2.264992
