19
Iteration:  1467
 O         0.630904         0.552962         0.681134
 C        -0.762980         0.926082         0.501291
 C        -1.818808        -0.053965         0.939339
 C        -2.774830         0.852341         0.080057
 C        -1.555490         1.066674        -0.859473
 O        -1.603776         2.386677        -1.485293
 C        -2.703126         3.065030        -0.856242
 C        -2.752402         2.303214         0.504941
 C        -1.187972         2.295812         1.108842
 H         1.331629         1.254190         0.509814
 H        -1.516081        -0.989091         0.383922
 H        -2.264223        -0.068726         2.007586
 H        -3.751532         0.548921        -0.236058
 H        -1.204909         0.267233        -1.605871
 H        -2.418814         4.098083        -0.702635
 H        -3.542793         2.992733        -1.489356
 H        -3.457483         2.698243         1.233612
 H        -0.668205         3.168294         0.715041
 H        -1.090923         2.346686         2.304024
