19
Iteration:  2551charge 0 multiplicity 1
 O         0.584969         0.595601         0.708924
 C        -0.758202         0.986237         0.573900
 C        -1.754624        -0.015302         0.888832
 C        -2.722039         0.808358        -0.028587
 C        -1.565604         1.038149        -0.892553
 O        -1.748454         2.316353        -1.596706
 C        -2.634331         3.037088        -0.783754
 C        -2.640492         2.378817         0.627237
 C        -1.236131         2.300754         1.165268
 H         1.033852         1.266096         0.197699
 H        -1.397018        -1.111143         0.713535
 H        -1.983984        -0.056889         2.036564
 H        -3.639896         0.368794        -0.486775
 H        -1.422099         0.252153        -1.584899
 H        -2.318292         4.143432        -0.935682
 H        -3.580576         2.842458        -1.172931
 H        -3.461266         2.612198         1.252121
 H        -0.787125         3.221821         0.648080
 H        -0.911000         2.276785         2.211752
