19
Iteration:  2316
 O         0.634938         0.698836         0.665211
 C        -0.745592         1.001867         0.449295
 C        -1.747641        -0.026033         0.961838
 C        -2.836499         0.813099        -0.008871
 C        -1.549552         1.027300        -0.874942
 O        -1.802086         2.234437        -1.648065
 C        -2.524248         3.112448        -0.778954
 C        -2.683305         2.325488         0.592600
 C        -1.267104         2.239483         1.256462
 H         1.338339         1.352761         0.381638
 H        -1.693330        -1.119446         0.608004
 H        -1.771365        -0.029480         2.080199
 H        -3.721147         0.342082        -0.367175
 H        -1.216013         0.146233        -1.504663
 H        -2.043131         4.061579        -0.714123
 H        -3.484914         3.344003        -1.304526
 H        -3.449863         2.739771         1.289829
 H        -0.662617         3.077290         1.001909
 H        -1.198541         2.044470         2.356398
