19
Iteration:  4547charge 0 multiplicity 1
 O         0.539607         0.639443         0.591109
 C        -0.806268         1.004966         0.523088
 C        -1.749449        -0.086345         0.966721
 C        -2.757097         0.870843         0.060798
 C        -1.528520         1.098172        -0.843879
 O        -1.661311         2.262801        -1.602598
 C        -2.563650         3.059854        -0.791512
 C        -2.622450         2.339615         0.564952
 C        -1.313826         2.229666         1.201920
 H         1.085717         1.380522         0.268544
 H        -1.796244        -1.139593         0.600853
 H        -2.089418        -0.115895         2.009583
 H        -3.659342         0.499729        -0.532173
 H        -1.383328         0.320111        -1.571301
 H        -1.918612         4.010262        -0.652654
 H        -3.539299         3.294491        -1.225258
 H        -3.528438         2.717983         1.137980
 H        -0.578576         3.133375         0.996001
 H        -1.367517         2.075344         2.241656
