19
Iteration:  4762charge 0 multiplicity 1
 O         0.588695         0.594811         0.634193
 C        -0.770883         0.889670         0.454783
 C        -1.903320        -0.007084         0.937253
 C        -2.779026         0.865992         0.014420
 C        -1.501453         1.045867        -0.942892
 O        -1.622743         2.342057        -1.475735
 C        -2.634059         3.070246        -0.792070
 C        -2.653059         2.310760         0.614849
 C        -1.224606         2.312797         1.172425
 H         1.118762         1.347715         0.263117
 H        -1.682705        -1.075291         0.667908
 H        -2.052991        -0.031693         2.023922
 H        -3.763678         0.525749        -0.133073
 H        -1.336228         0.244535        -1.651840
 H        -2.218299         4.056084        -0.757799
 H        -3.503981         2.952942        -1.406683
 H        -3.523971         2.456203         1.316000
 H        -0.763678         3.149136         0.599150
 H        -0.948415         2.341222         2.315979
