19
Iteration:  4349charge 0 multiplicity 1
 O         0.646173         0.523924         0.625152
 C        -0.731344         1.038412         0.496724
 C        -1.815403         0.020826         0.942741
 C        -2.825120         0.844204         0.015567
 C        -1.541001         1.073161        -0.911177
 O        -1.671836         2.310967        -1.495853
 C        -2.639814         3.053358        -0.742956
 C        -2.711587         2.265421         0.520317
 C        -1.238920         2.333217         1.183636
 H         1.285950         1.262907         0.615822
 H        -1.532596        -0.967525         0.588975
 H        -2.154103        -0.073317         1.974980
 H        -3.684946         0.373341        -0.417221
 H        -1.381675         0.368222        -1.673188
 H        -2.199871         4.046201        -0.689804
 H        -3.575555         2.882659        -1.396039
 H        -3.504535         2.526776         1.300975
 H        -0.600408         3.042448         0.649035
 H        -1.022258         2.451175         2.196864
