19
Iteration:  3590charge 0 multiplicity 1
 O         0.586664         0.599850         0.644237
 C        -0.701438         1.018279         0.517786
 C        -1.851424        -0.079405         0.940233
 C        -2.753417         0.791035         0.112861
 C        -1.567496         1.098822        -0.858976
 O        -1.679650         2.360981        -1.502808
 C        -2.699913         3.075576        -0.824366
 C        -2.652185         2.272768         0.508238
 C        -1.151721         2.290635         1.120789
 H         1.233286         1.173928         0.214499
 H        -1.696656        -1.007030         0.358651
 H        -2.006740        -0.131904         1.970014
 H        -3.761139         0.575176        -0.414487
 H        -1.281850         0.338422        -1.554459
 H        -2.427133         4.086403        -0.635464
 H        -3.668939         2.870286        -1.521376
 H        -3.340448         2.566739         1.276137
 H        -0.557818         3.095842         0.900610
 H        -1.290518         2.263102         2.224152
