19
Iteration:  4507charge 0 multiplicity 1
 O         0.580203         0.604134         0.639229
 C        -0.741335         0.932957         0.493275
 C        -1.847373        -0.036371         0.933517
 C        -2.720675         0.859098         0.024070
 C        -1.539548         1.103366        -0.871464
 O        -1.671865         2.294294        -1.523971
 C        -2.616752         3.094777        -0.756458
 C        -2.724240         2.299702         0.551260
 C        -1.217461         2.251650         1.092397
 H         1.092620         1.430317         0.778302
 H        -1.479591        -1.058770         0.788609
 H        -2.045444        -0.029127         2.025054
 H        -3.665434         0.520772        -0.525049
 H        -1.402016         0.198341        -1.588089
 H        -2.116094         4.012059        -0.566485
 H        -3.578547         3.054411        -1.351648
 H        -3.272179         2.793925         1.319251
 H        -0.778845         3.103272         0.705738
 H        -1.218445         2.349837         2.243453
