19
Iteration:   813charge 0 multiplicity 1
 O         0.632102         0.656654         0.793565
 C        -0.766916         0.952563         0.466260
 C        -1.872961        -0.033980         0.929904
 C        -2.782563         0.855650        -0.027874
 C        -1.482578         1.018449        -0.940652
 O        -1.733997         2.334599        -1.518209
 C        -2.662106         3.065192        -0.757871
 C        -2.632172         2.301951         0.585825
 C        -1.179403         2.291192         1.097457
 H         1.188087         0.580185         0.024742
 H        -1.755125        -1.128614         0.596219
 H        -2.071801        -0.068643         1.979883
 H        -3.739270         0.511988        -0.382712
 H        -1.198836         0.300805        -1.709873
 H        -2.242857         4.050763        -0.670387
 H        -3.584329         3.114314        -1.295947
 H        -3.434383         2.571639         1.233869
 H        -0.662918         3.184278         0.627624
 H        -1.141929         2.430252         2.237461
