19
Iteration:  2042charge 0 multiplicity 1
 O         0.676233         0.635593         0.711451
 C        -0.734979         0.962725         0.485203
 C        -1.817226        -0.049158         0.906579
 C        -2.755600         0.814752         0.082589
 C        -1.542777         1.077357        -0.932053
 O        -1.799838         2.243355        -1.647729
 C        -2.593550         3.124583        -0.704139
 C        -2.690539         2.352301         0.550959
 C        -1.237622         2.257259         1.151323
 H         1.315187         1.408763         0.690845
 H        -1.581664        -0.954315         0.436297
 H        -2.021210        -0.179873         2.020531
 H        -3.738092         0.429322        -0.262029
 H        -1.298761         0.361341        -1.711357
 H        -2.142798         4.104703        -0.637117
 H        -3.611654         3.117907        -1.143886
 H        -3.534404         2.753410         1.041313
 H        -0.536031         3.118312         0.996018
 H        -1.225676         2.111894         2.336389
