19
Iteration:  2958
 O         0.583478         0.607975         0.633205
 C        -0.774335         0.940180         0.485388
 C        -1.789095        -0.046573         0.921286
 C        -2.696887         0.808865         0.027465
 C        -1.557587         1.057659        -0.910795
 O        -1.635353         2.359277        -1.582945
 C        -2.691158         3.100478        -0.705656
 C        -2.759211         2.303474         0.620986
 C        -1.211374         2.283604         1.159777
 H         1.109654         1.257268         0.140421
 H        -1.626616        -1.090336         0.567109
 H        -1.952132        -0.112793         2.063766
 H        -3.664986         0.393284        -0.319426
 H        -1.248585         0.363930        -1.620420
 H        -2.114822         4.086782        -0.537240
 H        -3.629605         3.095964        -1.357146
 H        -3.471684         2.515311         1.374243
 H        -0.526893         3.153965         0.727166
 H        -1.108781         2.304233         2.251228
