19
Iteration:  4250
 O         0.583035         0.666790         0.558469
 C        -0.706719         1.003290         0.452325
 C        -1.915189        -0.037821         0.976123
 C        -2.742649         0.778279         0.076103
 C        -1.573861         0.997477        -0.920021
 O        -1.630819         2.273372        -1.569573
 C        -2.506634         3.107422        -0.680339
 C        -2.686560         2.296724         0.551075
 C        -1.304822         2.313814         1.157878
 H         1.170528         1.469477         0.580757
 H        -1.510577        -1.015949         0.654561
 H        -2.014391        -0.199368         2.045115
 H        -3.769579         0.493305        -0.216875
 H        -1.424177         0.145379        -1.630080
 H        -2.044304         4.118302        -0.692684
 H        -3.498147         3.204987        -1.259687
 H        -3.614179         2.599110         1.199921
 H        -0.760871         3.319158         1.103034
 H        -1.348621         2.126213         2.304593
