19
Iteration:  1107
 O         0.602104         0.785685         0.620609
 C        -0.793977         0.978294         0.512665
 C        -1.864739        -0.087377         0.948572
 C        -2.738716         0.811700         0.017334
 C        -1.529060         0.994710        -0.878328
 O        -1.648522         2.310668        -1.599345
 C        -2.604600         3.124092        -0.770832
 C        -2.645526         2.326194         0.554000
 C        -1.248986         2.283710         1.219892
 H         0.845984        -0.182806         0.551429
 H        -1.983489        -1.206191         0.617344
 H        -2.082057        -0.097823         2.009876
 H        -3.624966         0.412215        -0.493419
 H        -1.086915         0.130997        -1.485050
 H        -2.153311         4.133099        -0.654824
 H        -3.534456         3.187779        -1.285160
 H        -3.555061         2.608193         1.130815
 H        -0.511077         3.025536         1.058113
 H        -1.279689         2.102360         2.242993
