19
Iteration:    81
 O         0.616035         0.630088         0.478126
 C        -0.769473         0.977230         0.508978
 C        -1.848138         0.018748         0.954333
 C        -2.730729         0.802091         0.053166
 C        -1.528648         1.028592        -0.831630
 O        -1.614077         2.330576        -1.470984
 C        -2.601647         3.117088        -0.810784
 C        -2.699219         2.325265         0.473838
 C        -1.260112         2.235928         1.209468
 H         0.928701         0.723029         1.378521
 H        -1.808364        -0.979390         0.564888
 H        -2.144484         0.099019         2.061037
 H        -3.711678         0.369681        -0.325407
 H        -1.313166         0.198897        -1.588037
 H        -2.281849         4.177696        -0.612019
 H        -3.542640         3.033191        -1.424146
 H        -3.644347         2.548697         1.046448
 H        -0.698437         3.142179         1.059661
 H        -1.369378         2.076959         2.302708
