19
Iteration:   616charge 0 multiplicity 1
 O         0.554459         0.761454         0.468552
 C        -0.840267         1.004447         0.451175
 C        -1.860430        -0.111301         0.991795
 C        -2.838228         0.799856         0.112489
 C        -1.530465         0.959833        -0.817970
 O        -1.528206         2.253389        -1.490098
 C        -2.455335         3.044232        -0.778163
 C        -2.705116         2.384314         0.567206
 C        -1.318061         2.271205         1.169702
 H         0.821972         1.693652         0.338254
 H        -1.545082        -0.969852         0.312534
 H        -1.990835        -0.295465         2.057565
 H        -3.711041         0.497305        -0.402939
 H        -1.247338         0.082832        -1.321823
 H        -2.063813         4.044755        -0.736194
 H        -3.476126         3.002651        -1.352254
 H        -3.410164         2.923709         1.229337
 H        -0.778666         3.183216         0.879159
 H        -1.260178         2.182641         2.260644
