19
Iteration:   786charge 0 multiplicity 1
 O         0.613096         0.766317         0.634537
 C        -0.820944         0.957469         0.461849
 C        -1.839536        -0.095600         0.960567
 C        -2.826526         0.847882         0.086067
 C        -1.589077         0.987672        -0.925194
 O        -1.592936         2.276002        -1.573348
 C        -2.504035         3.094786        -0.786600
 C        -2.686577         2.336123         0.587504
 C        -1.251115         2.251238         1.247601
 H         1.060992         1.115644        -0.123569
 H        -1.773655        -0.996461         0.444522
 H        -1.916289        -0.232646         2.069939
 H        -3.732572         0.364938        -0.416074
 H        -1.366258         0.192339        -1.674975
 H        -2.133430         4.162391        -0.750813
 H        -3.431949         3.145796        -1.454593
 H        -3.596833         2.626753         1.175752
 H        -0.633236         3.110389         1.166283
 H        -1.399931         2.098603         2.282393
