19
Iteration:  3949charge 0 multiplicity 1
 O         0.620760         0.668148         0.570569
 C        -0.801432         1.006589         0.491119
 C        -1.806573        -0.038016         0.921486
 C        -2.779699         0.871347         0.019003
 C        -1.583004         1.019149        -0.834951
 O        -1.603017         2.228127        -1.602473
 C        -2.554619         3.096808        -0.752836
 C        -2.735650         2.313192         0.608067
 C        -1.271805         2.249534         1.227465
 H         1.099088         1.501316         0.260465
 H        -1.788533        -1.019350         0.407430
 H        -1.930073        -0.163271         2.021745
 H        -3.859570         0.523150        -0.245072
 H        -1.286953         0.147474        -1.416435
 H        -2.155014         4.153356        -0.670540
 H        -3.554975         3.038114        -1.339515
 H        -3.438272         2.729358         1.326120
 H        -0.412533         3.056503         1.006381
 H        -1.379536         2.282589         2.279274
