19
Iteration:  1482charge 0 multiplicity 1
 O         0.598608         0.569835         0.668118
 C        -0.715113         0.976560         0.499642
 C        -1.869078        -0.014531         0.921618
 C        -2.743915         0.855395        -0.021614
 C        -1.512959         1.067216        -0.874727
 O        -1.663385         2.278256        -1.561844
 C        -2.640098         3.072244        -0.759113
 C        -2.658359         2.334032         0.616100
 C        -1.266124         2.310679         1.126500
 H         1.112075         1.329734         0.926424
 H        -1.837060        -1.027439         0.482581
 H        -1.890733        -0.060212         1.921862
 H        -3.622506         0.370514        -0.518735
 H        -1.363671         0.304896        -1.628624
 H        -2.211414         4.131113        -0.750542
 H        -3.678887         2.837079        -1.130834
 H        -3.582378         2.590930         1.210982
 H        -0.651435         3.188586         0.726467
 H        -1.185452         2.359945         2.233959
