19
Iteration:   746
 O         0.615991         0.680345         0.407197
 C        -0.752659         1.015197         0.487538
 C        -1.911004        -0.023933         1.053988
 C        -2.803497         0.825504         0.013585
 C        -1.525922         0.995763        -0.850624
 O        -1.543010         2.268576        -1.552723
 C        -2.465035         3.057808        -0.815276
 C        -2.794481         2.239883         0.560764
 C        -1.354996         2.333761         1.352831
 H         1.145870         1.534007         0.307709
 H        -1.835469        -1.106661         0.638956
 H        -1.984597        -0.192308         2.112972
 H        -3.837806         0.590788        -0.290008
 H        -1.274423         0.229414        -1.561389
 H        -1.920742         3.926676        -0.481709
 H        -3.343610         3.349703        -1.330129
 H        -3.596013         2.587714         1.074841
 H        -0.935548         3.308683         1.014174
 H        -1.109385         2.074749         2.476936
