19
Iteration:   948charge 0 multiplicity 1
 O         0.585860         0.638514         0.561672
 C        -0.769289         0.987035         0.553374
 C        -1.847284        -0.083449         1.016051
 C        -2.727941         0.794896         0.008988
 C        -1.520633         1.058560        -0.918210
 O        -1.681340         2.320093        -1.704033
 C        -2.558065         3.143550        -0.810416
 C        -2.661718         2.298726         0.624487
 C        -1.297358         2.286908         1.204179
 H         1.208217         1.152375         1.157272
 H        -1.742666        -1.139291         0.651702
 H        -1.907578        -0.172847         2.192574
 H        -3.751862         0.595117        -0.324980
 H        -1.225436         0.162508        -1.474459
 H        -2.116380         4.082720        -0.519807
 H        -3.486246         3.286851        -1.292003
 H        -3.577749         2.462050         1.325946
 H        -0.702150         3.220593         1.365065
 H        -1.400565         1.995545         2.312601
