19
Iteration:  3117
 O         0.571152         0.582162         0.665275
 C        -0.760874         1.020521         0.479679
 C        -1.754746        -0.042482         0.922625
 C        -2.766659         0.767769        -0.019229
 C        -1.568027         1.055048        -0.914499
 O        -1.713197         2.340433        -1.528624
 C        -2.676897         3.146604        -0.735038
 C        -2.706856         2.249510         0.619338
 C        -1.125971         2.310249         1.130503
 H         1.166794         1.368699         0.559127
 H        -1.579721        -1.010912         0.530371
 H        -2.072621        -0.207665         1.950160
 H        -3.702243         0.392788        -0.416202
 H        -1.117434         0.215575        -1.583473
 H        -2.260804         4.109779        -0.822942
 H        -3.770850         3.146981        -1.190889
 H        -3.489935         2.589795         1.397735
 H        -0.575678         3.049117         0.641741
 H        -0.826028         2.312956         2.223946
