19
Iteration:  2306
 O         0.556548         0.704296         0.660564
 C        -0.727462         1.058778         0.464728
 C        -1.767238         0.008734         0.956044
 C        -2.681531         0.837756         0.087263
 C        -1.529987         1.049511        -0.939556
 O        -1.790190         2.148701        -1.616471
 C        -2.537261         3.161617        -0.793886
 C        -2.702641         2.338081         0.599462
 C        -1.277818         2.161644         1.229000
 H         1.129566         1.327885         0.109842
 H        -1.604102        -1.019691         0.400694
 H        -2.127822        -0.120146         1.981369
 H        -3.594691         0.406175        -0.207809
 H        -1.240032         0.283686        -1.736492
 H        -1.915433         4.005905        -0.624207
 H        -3.562134         3.213356        -1.339755
 H        -3.424424         2.662221         1.328016
 H        -0.725985         3.026422         1.059996
 H        -1.331207         1.988368         2.361062
