19
Iteration:  2758
 O         0.625525         0.685593         0.499090
 C        -0.758944         0.961506         0.548278
 C        -1.875954        -0.079645         1.035166
 C        -2.730477         0.825861         0.064246
 C        -1.540814         1.026544        -0.844073
 O        -1.581519         2.289230        -1.629504
 C        -2.607378         3.122141        -0.786162
 C        -2.756857         2.297241         0.603281
 C        -1.283958         2.289180         1.231499
 H         1.084102         1.393898        -0.056109
 H        -1.670293        -1.123421         0.642703
 H        -2.217842        -0.235175         2.072979
 H        -3.601167         0.410952        -0.398238
 H        -1.316024         0.171323        -1.376346
 H        -2.009632         4.044260        -0.716372
 H        -3.567237         3.154228        -1.373676
 H        -3.585362         2.668282         1.107986
 H        -0.789099         3.194834         0.891577
 H        -1.193304         2.226181         2.338951
