19
Iteration:  2445charge 0 multiplicity 1
 O         0.607634         0.746409         0.654962
 C        -0.734138         1.024776         0.447521
 C        -1.809972        -0.088419         0.956898
 C        -2.760474         0.821962         0.090810
 C        -1.592233         1.006310        -0.830623
 O        -1.755547         2.276619        -1.613938
 C        -2.538607         3.084125        -0.800121
 C        -2.656177         2.324643         0.572159
 C        -1.260468         2.226425         1.141573
 H         1.144055         1.323615         0.122212
 H        -1.719995        -1.002523         0.543874
 H        -2.017114        -0.153679         2.019708
 H        -3.488250         0.300017        -0.501776
 H        -1.324859         0.124607        -1.431658
 H        -1.866902         3.923058        -0.558632
 H        -3.586686         3.344546        -1.233328
 H        -3.333842         2.573858         1.444686
 H        -0.663479         3.188890         1.096377
 H        -1.373166         2.030248         2.175933
