19
Iteration:  4272
 O         0.585747         0.669947         0.570336
 C        -0.770855         0.924812         0.551226
 C        -1.802783        -0.066780         0.945969
 C        -2.791180         0.838381         0.039156
 C        -1.587140         1.081396        -0.808697
 O        -1.655917         2.288167        -1.554776
 C        -2.544435         3.085389        -0.794726
 C        -2.708347         2.328109         0.520891
 C        -1.247851         2.240062         1.200578
 H         0.964875         1.457944         0.190436
 H        -1.662062        -1.105343         0.585379
 H        -1.858522        -0.117090         2.041971
 H        -3.735994         0.413313        -0.339276
 H        -1.126153         0.370463        -1.507993
 H        -2.148132         4.125863        -0.620847
 H        -3.445206         3.260089        -1.539157
 H        -3.589489         2.691935         1.187710
 H        -0.610492         3.127295         0.872193
 H        -1.055282         2.082655         2.303399
