19
Iteration:   510charge 0 multiplicity 1
 O         0.637884         0.533167         0.767095
 C        -0.687303         0.982150         0.495757
 C        -1.875904         0.007464         0.952075
 C        -2.734520         0.882698        -0.000282
 C        -1.529396         1.037779        -0.936681
 O        -1.670741         2.405593        -1.510792
 C        -2.726476         2.955984        -0.792125
 C        -2.696415         2.334748         0.576308
 C        -1.128417         2.295538         1.063372
 H         1.234152         1.300830         0.656033
 H        -1.876102        -1.047405         0.472116
 H        -2.296273        -0.182996         1.917067
 H        -3.727257         0.685912        -0.355592
 H        -1.508615         0.246945        -1.661105
 H        -2.642753         4.094146        -0.895574
 H        -3.708339         2.734369        -1.277717
 H        -3.587082         2.443127         1.381290
 H        -0.734205         3.241419         0.526779
 H        -0.895963         2.323544         2.115981
