19
Iteration:  2922charge 0 multiplicity 1
 O         0.648483         0.693405         0.467403
 C        -0.794267         0.962443         0.443734
 C        -1.840695        -0.026798         0.926188
 C        -2.698759         0.854081        -0.000501
 C        -1.581453         1.008928        -0.897269
 O        -1.611165         2.276687        -1.446150
 C        -2.647776         3.040286        -0.758360
 C        -2.732193         2.333307         0.626261
 C        -1.237488         2.260804         1.202244
 H         0.909944         1.217584         1.225120
 H        -1.743342        -1.020460         0.505984
 H        -2.067904        -0.000095         2.029602
 H        -3.659994         0.462221        -0.268716
 H        -1.261062         0.127082        -1.581560
 H        -2.270244         4.120369        -0.583380
 H        -3.482882         3.200571        -1.458504
 H        -3.546225         2.657551         1.275150
 H        -0.592803         3.215955         0.939441
 H        -1.304360         2.116196         2.336123
