19
Iteration:    50charge 0 multiplicity 1
 O         0.541317         0.510701         0.698379
 C        -0.772092         0.997950         0.547451
 C        -1.826888        -0.076205         0.827199
 C        -2.671160         0.794559        -0.014969
 C        -1.502610         1.100489        -0.835982
 O        -1.731073         2.378159        -1.625521
 C        -2.673799         3.099820        -0.682128
 C        -2.596115         2.295119         0.553441
 C        -1.172845         2.407326         1.098051
 H         0.750479         0.546535         1.669213
 H        -1.505508        -1.120701         0.515694
 H        -2.204254        -0.173270         1.890800
 H        -3.596040         0.431378        -0.511043
 H        -1.194401         0.304086        -1.539305
 H        -2.608045         4.218798        -0.682672
 H        -3.836247         2.953457        -1.004106
 H        -3.389188         2.457997         1.302839
 H        -0.590789         3.036619         0.357236
 H        -1.019317         2.515007         2.188121
