19
Iteration:  3219charge 0 multiplicity 1
 O         0.592505         0.701324         0.590456
 C        -0.726700         0.981044         0.493352
 C        -1.839024         0.016975         0.929855
 C        -2.790031         0.812100         0.060120
 C        -1.611384         1.000824        -0.954240
 O        -1.663930         2.318403        -1.598296
 C        -2.543943         3.017797        -0.634417
 C        -2.627407         2.263579         0.596734
 C        -1.252928         2.280617         1.150396
 H         1.078554         1.479176         0.308938
 H        -1.692487        -0.927952         0.290139
 H        -1.937588        -0.186499         2.052727
 H        -3.853900         0.436804        -0.125417
 H        -1.313506         0.201449        -1.678305
 H        -2.143130         4.096889        -0.414331
 H        -3.557735         2.915510        -1.143351
 H        -3.443984         2.669585         1.169505
 H        -0.772761         3.276909         1.057777
 H        -1.338945         2.063550         2.177700
