19
Iteration:  1578
 O         0.567416         0.726353         0.422783
 C        -0.789352         0.933295         0.539526
 C        -1.926163        -0.034396         1.032873
 C        -2.744228         0.821087         0.066421
 C        -1.485674         1.017280        -0.861401
 O        -1.547261         2.346868        -1.455873
 C        -2.600992         3.037311        -0.801423
 C        -2.703501         2.300759         0.518563
 C        -1.261778         2.293172         1.133070
 H         0.956525         0.766772         1.288168
 H        -1.863106        -1.074707         0.487930
 H        -2.037976        -0.078572         2.138900
 H        -3.628052         0.551585        -0.454638
 H        -1.197466         0.207394        -1.548115
 H        -2.257361         4.048167        -0.733171
 H        -3.477781         2.924766        -1.372392
 H        -3.501302         2.573730         1.244016
 H        -0.751973         3.202436         0.954793
 H        -1.237507         2.107490         2.259554
