19
Iteration:  1202
 O         0.635831         0.839338         0.585123
 C        -0.733635         0.990351         0.498034
 C        -1.886893        -0.050099         0.898988
 C        -2.735225         0.846303         0.048333
 C        -1.562033         0.983689        -0.861187
 O        -1.668775         2.231043        -1.582847
 C        -2.438301         3.101856        -0.731270
 C        -2.728657         2.310919         0.514897
 C        -1.328301         2.220177         1.259848
 H         0.738834        -0.135356         0.412520
 H        -1.911143        -0.982753         0.488740
 H        -2.119400        -0.158785         2.006355
 H        -3.726908         0.697974        -0.421641
 H        -1.210353         0.342942        -1.653565
 H        -1.996791         4.083910        -0.516087
 H        -3.530256         3.229253        -1.252440
 H        -3.489046         2.593048         1.164601
 H        -0.652125         3.127064         1.063723
 H        -1.431398         2.063485         2.411293
