19
Iteration:   539
 O         0.532121         0.471140         0.778950
 C        -0.698324         1.072294         0.498304
 C        -1.727359        -0.045212         0.992100
 C        -2.744075         0.724504         0.010993
 C        -1.516592         1.078132        -0.924524
 O        -1.736979         2.384546        -1.594641
 C        -2.699374         3.103613        -0.790982
 C        -2.688160         2.376740         0.533419
 C        -1.179916         2.336137         1.094485
 H         1.252720         0.970200         0.401849
 H        -1.439724        -1.111680         0.721802
 H        -2.041910        -0.233587         2.055756
 H        -3.702917         0.362852        -0.299288
 H        -1.157365         0.311091        -1.609972
 H        -2.414244         4.119755        -0.753518
 H        -3.674614         2.987440        -1.252929
 H        -3.553680         2.567572         1.211549
 H        -0.691404         3.202759         0.714793
 H        -1.074149         2.196586         2.172197
