19
Iteration:  3145charge 0 multiplicity 1
 O         0.660854         0.583955         0.635273
 C        -0.742584         0.952004         0.452553
 C        -1.814643         0.005656         0.960737
 C        -2.731478         0.821980         0.087909
 C        -1.499298         0.994160        -0.959878
 O        -1.626163         2.395435        -1.550705
 C        -2.754219         3.090373        -0.689109
 C        -2.747401         2.305333         0.571011
 C        -1.266859         2.289792         1.115436
 H         1.233941         1.209066         0.082428
 H        -1.791508        -1.085215         0.524990
 H        -2.143463        -0.231270         1.982359
 H        -3.688286         0.371495        -0.239011
 H        -1.269375         0.208887        -1.613621
 H        -2.256057         4.119176        -0.653205
 H        -3.719447         2.982947        -1.105191
 H        -3.381052         2.742330         1.314060
 H        -0.531690         3.192680         0.966070
 H        -1.146025         2.126503         2.198706
