19
Iteration:  1904charge 0 multiplicity 1
 O         0.568251         0.616852         0.681831
 C        -0.712806         0.942214         0.512273
 C        -1.785588        -0.093852         0.972458
 C        -2.618672         0.827554         0.060492
 C        -1.588756         1.043121        -0.904492
 O        -1.738066         2.321081        -1.634791
 C        -2.605080         3.134553        -0.769997
 C        -2.687845         2.333274         0.593763
 C        -1.286274         2.308806         1.129009
 H         1.119041         1.361313         0.430601
 H        -1.810252        -1.079468         0.404728
 H        -2.046892        -0.363318         1.973414
 H        -3.547309         0.500327        -0.332601
 H        -1.211473         0.364361        -1.693133
 H        -2.189337         4.128924        -0.451532
 H        -3.750205         3.168682        -1.113680
 H        -3.533509         2.582460         1.225658
 H        -0.509590         3.053542         0.821894
 H        -1.201984         2.144428         2.134377
