19
Iteration:  4692
 O         0.591696         0.684078         0.641582
 C        -0.752662         0.973595         0.485624
 C        -1.872208         0.009125         0.855453
 C        -2.833540         0.846503         0.083766
 C        -1.495912         1.039188        -0.882819
 O        -1.722959         2.258632        -1.519140
 C        -2.483853         3.094290        -0.753790
 C        -2.683992         2.265458         0.527356
 C        -1.231027         2.232310         1.161887
 H         1.150116         1.385728         0.239861
 H        -1.864224        -1.072870         0.651581
 H        -2.114491        -0.061488         1.963311
 H        -3.920906         0.584480        -0.305445
 H        -1.098954         0.266167        -1.645840
 H        -1.964690         4.046681        -0.629077
 H        -3.435759         3.193216        -1.150472
 H        -3.428060         2.710222         1.198150
 H        -0.647380         3.166927         0.978222
 H        -1.156777         1.985841         2.285137
