19
Iteration:  3998
 O         0.569635         0.607948         0.600123
 C        -0.765878         0.924885         0.479392
 C        -1.841698         0.032497         1.015978
 C        -2.771038         0.860974         0.029996
 C        -1.460231         1.012999        -0.952556
 O        -1.648814         2.308178        -1.530203
 C        -2.621113         3.044803        -0.730294
 C        -2.668763         2.327367         0.567470
 C        -1.242897         2.255728         1.161048
 H         0.897062         1.469410         0.397903
 H        -1.561110        -0.969730         0.648586
 H        -2.236601        -0.115460         2.016465
 H        -3.708207         0.502074        -0.280311
 H        -1.046228         0.360136        -1.760273
 H        -2.265167         4.068131        -0.649030
 H        -3.691105         2.981603        -1.230033
 H        -3.581810         2.739350         1.133708
 H        -0.791732         3.064848         0.779358
 H        -1.103413         2.540987         2.247937
