19
Iteration:  2095charge 0 multiplicity 1
 O         0.659657         0.574027         0.556344
 C        -0.734786         0.959694         0.573219
 C        -1.811667         0.006049         0.991672
 C        -2.769361         0.840132         0.074086
 C        -1.575543         1.008769        -0.826986
 O        -1.620458         2.416027        -1.450653
 C        -2.689862         3.049675        -0.833837
 C        -2.705101         2.232972         0.501986
 C        -1.233660         2.298719         1.072830
 H         1.243726         1.243389         0.096554
 H        -1.673509        -1.000218         0.736463
 H        -1.995053         0.161317         2.121695
 H        -3.707466         0.428002        -0.358333
 H        -1.252848         0.400755        -1.640843
 H        -2.547064         4.094720        -0.848119
 H        -3.747841         2.988871        -1.402260
 H        -3.378003         2.534729         1.341613
 H        -0.740752         3.229399         0.795973
 H        -1.400679         2.140523         2.109018
