19
Iteration:  1115charge 0 multiplicity 1
 O         0.525812         0.721609         0.615674
 C        -0.749027         0.939303         0.574950
 C        -1.843770        -0.003716         0.951656
 C        -2.700440         0.818236         0.014480
 C        -1.476649         1.033513        -0.871210
 O        -1.658444         2.312920        -1.581588
 C        -2.627716         3.109103        -0.803481
 C        -2.680242         2.289451         0.573579
 C        -1.240084         2.292510         1.177194
 H         0.794328        -0.218952         0.400365
 H        -1.566715        -0.963597         0.509291
 H        -2.228817        -0.059651         2.046103
 H        -3.668303         0.480110        -0.407090
 H        -1.138983         0.414897        -1.702139
 H        -2.265382         4.123937        -0.695676
 H        -3.535579         3.054465        -1.346352
 H        -3.441381         2.588349         1.238213
 H        -0.469494         3.031752         1.038165
 H        -1.359302         2.082437         2.242493
