19
Iteration:   698charge 0 multiplicity 1
 O         0.622744         0.542383         0.802731
 C        -0.725542         0.948844         0.536912
 C        -1.849876        -0.122438         0.812406
 C        -2.714600         0.821566         0.074258
 C        -1.558607         1.123648        -0.942713
 O        -1.716985         2.340323        -1.565815
 C        -2.659381         3.038306        -0.758237
 C        -2.671017         2.352040         0.590823
 C        -1.175009         2.392713         1.050878
 H         1.222321         1.264220         0.680867
 H        -1.762055        -1.087903         0.451375
 H        -2.208612        -0.261696         1.861398
 H        -3.773186         0.462306        -0.181219
 H        -1.443461         0.172719        -1.569086
 H        -2.419144         4.135735        -0.837591
 H        -3.572117         2.887817        -1.303671
 H        -3.424830         2.710415         1.410894
 H        -0.557300         3.109286         0.490398
 H        -1.120408         2.641853         2.113301
