19
Iteration:   321
 O         0.587929         0.710439         0.598321
 C        -0.767019         0.936630         0.518946
 C        -1.810350        -0.065841         0.998285
 C        -2.781595         0.843793         0.114187
 C        -1.568717         0.997157        -0.899732
 O        -1.664819         2.305353        -1.572061
 C        -2.589546         3.074440        -0.795823
 C        -2.653715         2.341353         0.449084
 C        -1.207727         2.232583         1.140829
 H         0.918827         1.187225         1.379606
 H        -1.876094        -1.033084         0.562530
 H        -1.884893        -0.085294         2.087617
 H        -3.733104         0.391579        -0.299948
 H        -1.371248         0.247993        -1.724732
 H        -2.214908         4.108927        -0.543200
 H        -3.530683         3.366263        -1.402745
 H        -3.406786         2.799053         1.189008
 H        -0.592877         3.142336         1.044402
 H        -1.348877         2.115657         2.244102
