19
Iteration:   120
 O         0.552454         0.927915         0.318735
 C        -0.780203         0.953764         0.490789
 C        -1.999790        -0.029358         0.898639
 C        -2.830550         0.796909         0.087286
 C        -1.598763         0.950124        -0.764485
 O        -1.453612         2.190744        -1.440172
 C        -2.416960         3.049609        -0.755036
 C        -2.682455         2.276438         0.556019
 C        -1.323300         2.264820         1.251361
 H         1.024654         1.219779         1.139476
 H        -1.879039        -0.976447         0.364874
 H        -2.021428        -0.327247         1.904734
 H        -3.768325         0.450721        -0.295889
 H        -1.370304         0.090912        -1.374610
 H        -1.939192         4.015650        -0.597574
 H        -3.331108         3.309626        -1.406235
 H        -3.504428         2.743896         1.063494
 H        -0.717617         3.115416         0.898594
 H        -1.304352         2.131009         2.338711
