19
Iteration:  1795
 O         0.632773         0.677150         0.570815
 C        -0.721438         0.952666         0.529460
 C        -1.863878        -0.025369         0.993913
 C        -2.753401         0.757813         0.053541
 C        -1.452663         1.052489        -0.836583
 O        -1.755145         2.389441        -1.634542
 C        -2.662711         3.086918        -0.812164
 C        -2.649889         2.313614         0.562820
 C        -1.220517         2.239032         1.160476
 H         0.656364         0.202016         1.461321
 H        -1.636934        -1.044209         0.588319
 H        -2.105380        -0.061480         2.060436
 H        -3.645600         0.331712        -0.307059
 H        -1.312161         0.435999        -1.721264
 H        -2.329305         4.098741        -0.735425
 H        -3.594496         3.125823        -1.234821
 H        -3.340759         2.779196         1.248123
 H        -0.560849         3.187675         0.814299
 H        -1.095059         2.175666         2.293411
