19
Iteration:  3729charge 0 multiplicity 1
 O         0.644126         0.525922         0.643365
 C        -0.737060         1.005132         0.487048
 C        -1.841075         0.010475         0.931497
 C        -2.719215         0.778375         0.033737
 C        -1.552288         1.092312        -0.911286
 O        -1.671742         2.313365        -1.478760
 C        -2.660712         3.090374        -0.766986
 C        -2.736542         2.293267         0.596324
 C        -1.227401         2.320225         1.078077
 H         1.256525         1.277920         0.349154
 H        -1.776876        -1.087527         0.731634
 H        -2.106106         0.227270         1.993082
 H        -3.741512         0.471941        -0.301474
 H        -0.989335         0.270961        -1.425867
 H        -2.268874         4.167346        -0.797342
 H        -3.586134         2.880568        -1.282114
 H        -3.647598         2.594474         1.191882
 H        -0.799915         3.220532         0.597136
 H        -1.023499         2.277659         2.206444
