19
Iteration:  2944charge 0 multiplicity 1
 O         0.617921         0.624578         0.564056
 C        -0.747991         0.985491         0.500359
 C        -1.822369        -0.096132         0.992786
 C        -2.877251         0.761529         0.118868
 C        -1.509145         1.102944        -0.878856
 O        -1.598539         2.401928        -1.634185
 C        -2.640774         3.139946        -0.721207
 C        -2.634946         2.228377         0.564686
 C        -1.277496         2.210298         1.124124
 H         1.111604         1.515805         0.615265
 H        -1.582303        -1.061057         0.593444
 H        -2.011431        -0.112352         2.128326
 H        -3.834482         0.440166        -0.257809
 H        -1.225035         0.191427        -1.563252
 H        -2.547873         4.278133        -0.484238
 H        -3.631703         3.100449        -1.217897
 H        -3.395872         2.649325         1.221022
 H        -0.730074         3.207855         0.690313
 H        -1.157005         2.190462         2.256350
