19
Iteration:  2365charge 0 multiplicity 1
 O         0.600115         0.599317         0.559909
 C        -0.766434         0.978127         0.428895
 C        -1.844106        -0.050321         0.991963
 C        -2.731370         0.840519         0.097715
 C        -1.555917         1.105000        -0.849735
 O        -1.593242         2.334579        -1.464582
 C        -2.691111         2.958739        -0.749133
 C        -2.661412         2.288235         0.514067
 C        -1.197940         2.350524         1.069726
 H         1.009081         1.413775         0.809713
 H        -1.407352        -0.999267         0.769203
 H        -2.321242        -0.073824         1.956105
 H        -3.658946         0.463235        -0.416256
 H        -1.470368         0.270293        -1.491015
 H        -2.773722         4.085906        -0.551171
 H        -3.651141         2.810640        -1.431768
 H        -3.367849         2.721078         1.181737
 H        -0.640960         3.270672         0.735623
 H        -1.258142         2.258904         2.143618
