19
Iteration:  4683
 O         0.613693         0.671396         0.675365
 C        -0.741282         0.941232         0.496950
 C        -1.898765        -0.036404         0.915480
 C        -2.760157         0.887932         0.060110
 C        -1.540517         1.035076        -0.951466
 O        -1.693823         2.270585        -1.632797
 C        -2.546187         3.116362        -0.703811
 C        -2.713309         2.336083         0.609984
 C        -1.229354         2.201644         1.146976
 H         1.100261         1.479179         0.370548
 H        -1.853192        -1.090850         0.604261
 H        -2.138223         0.105896         1.993511
 H        -3.638555         0.367391        -0.322027
 H        -1.161687         0.204467        -1.549184
 H        -2.134093         4.062782        -0.630157
 H        -3.420169         3.258962        -1.338171
 H        -3.461039         2.513890         1.303735
 H        -0.612664         3.045517         0.941435
 H        -1.063287         2.013550         2.326522
