19
Iteration:  1478
 O         0.628667         0.536404         0.673379
 C        -0.722852         1.018177         0.506197
 C        -1.859233        -0.013785         0.903392
 C        -2.760284         0.839188         0.014548
 C        -1.506457         1.058523        -0.874763
 O        -1.655056         2.320000        -1.523981
 C        -2.649962         3.072199        -0.803642
 C        -2.692509         2.331664         0.573504
 C        -1.266323         2.289836         1.143192
 H         1.057770         1.433289         0.803217
 H        -1.829828        -1.085661         0.545981
 H        -1.889301        -0.194909         2.054191
 H        -3.560953         0.473341        -0.564207
 H        -1.513625         0.186434        -1.597706
 H        -2.366030         4.104798        -0.857543
 H        -3.614506         2.979666        -1.232104
 H        -3.472166         2.620317         1.283060
 H        -0.722189         3.062151         0.608136
 H        -0.990644         2.382800         2.293861
