19
Iteration:  4144charge 0 multiplicity 1
 O         0.622881         0.618023         0.612349
 C        -0.749188         0.938776         0.512954
 C        -1.849475         0.015528         0.994634
 C        -2.750604         0.825123         0.017838
 C        -1.529526         1.059361        -0.844167
 O        -1.648596         2.316237        -1.586499
 C        -2.633856         3.110010        -0.737767
 C        -2.733198         2.266824         0.566249
 C        -1.221584         2.271183         1.151624
 H         1.120231         1.309868         0.062240
 H        -1.718890        -0.970854         0.511696
 H        -2.298248        -0.127259         1.998620
 H        -3.717732         0.420372        -0.375922
 H        -1.107224         0.271424        -1.422497
 H        -2.158261         4.106585        -0.922907
 H        -3.640667         2.994234        -1.393638
 H        -3.468751         2.599550         1.317542
 H        -0.662359         3.111489         0.840403
 H        -1.143368         2.309786         2.311911
