19
Iteration:  2721
 O         0.552451         0.661128         0.660745
 C        -0.760791         0.997016         0.444162
 C        -1.824463        -0.083738         0.986648
 C        -2.708982         0.821663         0.116061
 C        -1.545113         1.002511        -0.887368
 O        -1.635215         2.310729        -1.626066
 C        -2.647140         3.118504        -0.814156
 C        -2.718943         2.333436         0.587595
 C        -1.190993         2.250601         1.135735
 H         1.027899         1.528038         0.792821
 H        -1.585788        -1.017240         0.535528
 H        -1.995183        -0.112428         2.014912
 H        -3.684756         0.346134        -0.238720
 H        -1.553273         0.180374        -1.735942
 H        -2.360862         4.112885        -0.604782
 H        -3.593197         3.208657        -1.323460
 H        -3.471385         2.578668         1.434038
 H        -0.623021         3.131751         0.801932
 H        -0.896242         2.029384         2.215460
