19
Iteration:   183charge 0 multiplicity 1
 O         0.632984         0.521242         0.687965
 C        -0.737379         0.971739         0.480924
 C        -1.805290         0.003454         0.862559
 C        -2.688344         0.820308        -0.032026
 C        -1.541456         1.048440        -0.940284
 O        -1.730411         2.306613        -1.527331
 C        -2.675144         3.042009        -0.754890
 C        -2.687932         2.368385         0.577045
 C        -1.216646         2.381942         1.170939
 H         0.683868         0.569339         1.677877
 H        -1.542152        -1.145619         0.543531
 H        -1.980489         0.077310         1.953285
 H        -3.613419         0.462201        -0.393404
 H        -1.301319         0.389056        -1.711681
 H        -2.400506         4.110505        -0.752072
 H        -3.736207         3.145583        -1.120073
 H        -3.531930         2.561612         1.245261
 H        -0.611813         3.248029         0.655026
 H        -0.996203         2.515087         2.230481
