19
Iteration:  2038charge 0 multiplicity 1
 O         0.681745         0.633350         0.701324
 C        -0.742666         0.965197         0.492225
 C        -1.800406        -0.088112         0.935163
 C        -2.746585         0.846011         0.084625
 C        -1.538597         1.060404        -0.938058
 O        -1.802012         2.267212        -1.655157
 C        -2.584142         3.143672        -0.747623
 C        -2.717209         2.346385         0.558205
 C        -1.234965         2.244758         1.171227
 H         1.152902         1.465163         0.696951
 H        -1.686140        -1.102731         0.448492
 H        -1.962827        -0.143916         2.011654
 H        -3.722743         0.458151        -0.240736
 H        -1.241348         0.317278        -1.683334
 H        -2.060163         4.100792        -0.683839
 H        -3.648144         3.118432        -1.212847
 H        -3.585447         2.687781         1.256759
 H        -0.613818         3.160691         1.075181
 H        -1.152364         2.123009         2.195012
