19
Iteration:  1270charge 0 multiplicity 1
 O         0.659119         0.751363         0.686733
 C        -0.764521         0.917355         0.528398
 C        -1.921138        -0.123369         0.936413
 C        -2.758208         0.876604         0.007698
 C        -1.531138         1.000859        -0.867790
 O        -1.634399         2.344131        -1.585423
 C        -2.591075         3.141196        -0.798885
 C        -2.681199         2.302190         0.595308
 C        -1.229518         2.296692         1.146503
 H         1.063933         0.190147         0.045776
 H        -1.844941        -1.150602         0.658850
 H        -2.218734        -0.163541         1.942810
 H        -3.700204         0.370387        -0.311005
 H        -1.328534         0.065157        -1.505266
 H        -2.420888         4.235663        -0.716153
 H        -3.672460         3.046014        -1.252731
 H        -3.567421         2.541747         1.155327
 H        -0.563487         3.075169         0.832350
 H        -1.231496         2.152724         2.234808
