19
Iteration:  1471charge 0 multiplicity 1
 O         0.643615         0.538408         0.680152
 C        -0.753976         0.979759         0.501305
 C        -1.835712        -0.038059         0.928307
 C        -2.766680         0.844089         0.068795
 C        -1.527734         1.053873        -0.871896
 O        -1.631334         2.369481        -1.492155
 C        -2.670639         3.059126        -0.839180
 C        -2.739221         2.313274         0.514309
 C        -1.222987         2.282580         1.150037
 H         1.196234         1.329901         0.627786
 H        -1.638713        -1.027674         0.472073
 H        -2.080554        -0.134355         1.908439
 H        -3.697199         0.556881        -0.455910
 H        -1.395490         0.210189        -1.537846
 H        -2.450638         4.178827        -0.835140
 H        -3.636814         3.068319        -1.459927
 H        -3.410085         2.686846         1.321971
 H        -0.712852         3.115741         0.593347
 H        -0.982222         2.365737         2.217517
