19
Iteration:  3445charge 0 multiplicity 1
 O         0.647279         0.534245         0.612708
 C        -0.743197         0.989437         0.472103
 C        -1.790676         0.010774         0.897595
 C        -2.711762         0.857336        -0.027408
 C        -1.566125         1.025603        -0.882463
 O        -1.655248         2.296984        -1.490892
 C        -2.654804         3.054007        -0.704695
 C        -2.704880         2.330400         0.650554
 C        -1.322034         2.336776         1.109924
 H         1.077847         1.285596         0.095221
 H        -1.511200        -0.971374         0.777335
 H        -1.852664         0.121622         1.976890
 H        -3.678955         0.639767        -0.529761
 H        -1.177672         0.237458        -1.655157
 H        -2.407477         4.105170        -0.851834
 H        -3.695839         2.794391        -1.172072
 H        -3.523484         2.563951         1.419280
 H        -0.782250         3.137434         0.823019
 H        -1.214889         2.346176         2.258053
