19
Iteration:  1039
 O         0.648571         0.708290         0.584491
 C        -0.729649         1.016556         0.547325
 C        -1.909047         0.013018         0.943653
 C        -2.747525         0.829382        -0.001648
 C        -1.529414         1.014296        -0.822386
 O        -1.595837         2.271483        -1.635226
 C        -2.606210         3.102269        -0.762526
 C        -2.728568         2.285752         0.513182
 C        -1.289295         2.256526         1.309234
 H         0.778814         0.247408        -0.257993
 H        -1.805876        -0.989165         0.508501
 H        -2.071574        -0.127524         2.091101
 H        -3.701852         0.329764        -0.207840
 H        -1.227357         0.270409        -1.559174
 H        -2.068411         4.022676        -0.537259
 H        -3.472019         3.330476        -1.309159
 H        -3.516183         2.582127         1.172516
 H        -0.730720         3.119866         1.125083
 H        -1.364078         2.147389         2.337222
