19
Iteration:  4342charge 0 multiplicity 1
 O         0.647377         0.505653         0.628259
 C        -0.770506         0.975255         0.519352
 C        -1.801184         0.008394         0.922018
 C        -2.785912         0.821413         0.028923
 C        -1.504705         1.063605        -0.920543
 O        -1.657943         2.331648        -1.499484
 C        -2.647385         3.064414        -0.733786
 C        -2.752464         2.281420         0.555137
 C        -1.204895         2.368698         1.112024
 H         1.149401         1.304604         0.497772
 H        -1.620039        -1.030312         0.675475
 H        -1.983567        -0.000434         2.003001
 H        -3.826152         0.478983        -0.174057
 H        -1.216924         0.363396        -1.724260
 H        -2.242023         4.053161        -0.742630
 H        -3.672587         3.034023        -1.266448
 H        -3.592472         2.501413         1.124615
 H        -0.641582         3.217331         0.721994
 H        -1.394302         2.493460         2.302141
