19
Iteration:  4048
 O         0.542546         0.564568         0.673723
 C        -0.714276         1.010427         0.472247
 C        -1.845203        -0.068825         0.936411
 C        -2.700048         0.832306         0.115021
 C        -1.529827         1.094338        -0.887024
 O        -1.680271         2.337932        -1.558046
 C        -2.624876         3.035246        -0.793128
 C        -2.643327         2.321152         0.574547
 C        -1.260316         2.306934         1.074391
 H         1.192483         1.241049         0.313398
 H        -1.862934        -1.120961         0.623544
 H        -1.943877        -0.112058         2.070005
 H        -3.651569         0.348802        -0.239540
 H        -1.327641         0.384508        -1.656821
 H        -2.234955         4.056760        -0.661971
 H        -3.565493         3.028686        -1.194507
 H        -3.519535         2.477723         1.147376
 H        -0.652341         3.370090         0.983768
 H        -1.233572         2.321220         2.128958
