19
Iteration:  3133
 O         0.610202         0.589384         0.661719
 C        -0.713478         0.918763         0.507433
 C        -1.807545        -0.094616         0.981886
 C        -2.726358         0.797250         0.081310
 C        -1.562878         1.134895        -0.910037
 O        -1.700604         2.412492        -1.547759
 C        -2.688415         3.067055        -0.767962
 C        -2.637156         2.292673         0.549292
 C        -1.226403         2.249835         1.091706
 H         1.107703         1.261661         0.212351
 H        -1.551030        -1.119851         0.537602
 H        -1.875266         0.037647         2.088497
 H        -3.744564         0.474981        -0.237423
 H        -1.455431         0.463793        -1.726978
 H        -2.522002         4.171685        -0.430242
 H        -3.552148         3.155955        -1.348689
 H        -3.440087         2.506198         1.196704
 H        -0.646068         3.131176         0.614292
 H        -1.343115         2.309896         2.144866
