19
Iteration:  1106
 O         0.615753         0.793469         0.622844
 C        -0.799954         0.982031         0.502046
 C        -1.870874        -0.099045         0.947057
 C        -2.743809         0.810940         0.016163
 C        -1.533325         0.996956        -0.880335
 O        -1.647300         2.308101        -1.598844
 C        -2.598951         3.120313        -0.768003
 C        -2.647200         2.333052         0.546630
 C        -1.248077         2.276425         1.227337
 H         0.838041        -0.177881         0.564245
 H        -1.996400        -1.196440         0.623472
 H        -2.071216        -0.097168         2.044878
 H        -3.642870         0.413608        -0.484176
 H        -1.113867         0.118448        -1.456954
 H        -2.153450         4.119018        -0.653054
 H        -3.511012         3.213263        -1.249907
 H        -3.528950         2.603301         1.120579
 H        -0.554090         3.042592         1.042620
 H        -1.269641         2.118714         2.244843
