19
Iteration:  4701charge 0 multiplicity 1
 O         0.594258         0.658626         0.610011
 C        -0.778985         1.016410         0.442911
 C        -1.873534        -0.039795         0.947520
 C        -2.821637         0.795166         0.009513
 C        -1.549337         1.042460        -0.842501
 O        -1.658388         2.247340        -1.521823
 C        -2.510130         3.082873        -0.748208
 C        -2.616410         2.297542         0.540363
 C        -1.266701         2.267126         1.217553
 H         1.089048         1.355442         0.128200
 H        -1.605805        -0.892967         0.299167
 H        -1.961337        -0.122509         2.051885
 H        -3.935908         0.520844        -0.310906
 H        -1.367999         0.257692        -1.661077
 H        -1.966472         4.078088        -0.491079
 H        -3.480219         3.373532        -1.222234
 H        -3.485958         2.794990         1.112463
 H        -0.675238         3.192968         0.901503
 H        -1.399702         2.214417         2.252699
