19
Iteration:  3808charge 0 multiplicity 1
 O         0.603864         0.674254         0.577305
 C        -0.804048         0.995093         0.486583
 C        -1.861018        -0.043379         0.948163
 C        -2.809514         0.746592         0.085523
 C        -1.472462         1.094240        -0.905197
 O        -1.652101         2.298904        -1.565540
 C        -2.534610         3.082558        -0.804301
 C        -2.697137         2.259627         0.578980
 C        -1.270489         2.260768         1.226494
 H         1.160234         1.409119         0.176606
 H        -1.824743        -1.105038         0.567204
 H        -1.961850         0.021250         2.045209
 H        -3.889708         0.277224        -0.024402
 H        -1.287469         0.171220        -1.468234
 H        -1.997144         4.041698        -0.691816
 H        -3.431778         3.373980        -1.339680
 H        -3.435265         2.817295         1.153498
 H        -0.796178         3.142420         0.886495
 H        -1.190175         2.346594         2.383833
