19
Iteration:    22
 O         0.766557         0.571453         0.769028
 C        -0.688776         0.895644         0.408958
 C        -1.888041         0.000891         0.893993
 C        -2.789112         0.880895         0.039370
 C        -1.600263         1.074976        -0.984520
 O        -1.640804         2.410671        -1.547462
 C        -2.716299         3.072597        -0.747915
 C        -2.695361         2.306226         0.573105
 C        -1.237908         2.247077         1.084492
 H         0.809496         0.618354         1.753510
 H        -1.806592        -1.054064         0.586137
 H        -2.022989         0.042988         1.960755
 H        -3.699946         0.516195        -0.395883
 H        -1.459203         0.358753        -1.767630
 H        -2.500341         4.117923        -0.646387
 H        -3.636972         2.941842        -1.238421
 H        -3.426436         2.579808         1.324281
 H        -0.604863         3.109196         0.778617
 H        -1.084228         2.135703         2.159354
