19
Iteration:  1587charge 0 multiplicity 1
 O         0.652014         0.661544         0.456460
 C        -0.769771         1.012062         0.475671
 C        -1.894771        -0.002557         0.998020
 C        -2.772969         0.828286         0.035242
 C        -1.542068         1.045667        -0.797239
 O        -1.548623         2.309712        -1.431727
 C        -2.597753         3.072780        -0.830051
 C        -2.739796         2.239980         0.533544
 C        -1.241710         2.296927         1.132322
 H         0.891412         0.694437         1.370346
 H        -1.867466        -1.053595         0.540153
 H        -2.337014         0.025563         2.046854
 H        -3.613270         0.334759        -0.227771
 H        -1.259528         0.398999        -1.630127
 H        -2.461611         4.116354        -0.692655
 H        -3.611388         3.025796        -1.399237
 H        -3.530862         2.554842         1.165190
 H        -0.604069         3.063127         0.922773
 H        -1.361606         2.202115         2.206400
