19
Iteration:  3580
 O         0.503897         0.582832         0.673968
 C        -0.809789         1.001374         0.475655
 C        -1.790208         0.004689         0.968333
 C        -2.712354         0.836570         0.058923
 C        -1.517167         1.054123        -0.950500
 O        -1.654285         2.389634        -1.524206
 C        -2.689685         3.022283        -0.796942
 C        -2.642388         2.253406         0.560025
 C        -1.147533         2.286936         1.165418
 H         1.036461         1.278374         0.211104
 H        -1.433879        -0.962403         0.543063
 H        -1.951263        -0.241304         1.984072
 H        -3.753333         0.414174        -0.164027
 H        -1.332716         0.372905        -1.723489
 H        -2.462982         4.073369        -0.879857
 H        -3.803111         2.964702        -1.192728
 H        -3.322807         2.523960         1.328595
 H        -0.689161         3.135555         0.779298
 H        -0.989884         2.186189         2.224821
