19
Iteration:  1720
 O         0.719872         0.703603         0.386400
 C        -0.715187         0.987070         0.537513
 C        -1.957362        -0.021782         1.017585
 C        -2.811690         0.853201         0.032952
 C        -1.564151         1.068651        -0.823271
 O        -1.577139         2.278219        -1.466277
 C        -2.583553         3.066183        -0.770345
 C        -2.774001         2.300824         0.520751
 C        -1.264532         2.209895         1.210155
 H         1.083549         0.998926         1.213830
 H        -1.609299        -0.982511         0.547696
 H        -2.202591        -0.080115         2.069420
 H        -3.646459         0.429305        -0.417952
 H        -1.227611         0.263990        -1.487651
 H        -2.281322         4.091472        -0.813267
 H        -3.601931         2.920620        -1.401664
 H        -3.668890         2.734028         1.028977
 H        -0.710295         3.068345         0.775584
 H        -1.184738         2.097400         2.328385
