19
Iteration:  4256charge 0 multiplicity 1
 O         0.594979         0.665380         0.558100
 C        -0.762354         1.035830         0.456084
 C        -1.852233        -0.045595         0.992687
 C        -2.769537         0.761877         0.076212
 C        -1.543741         0.973025        -0.947509
 O        -1.619705         2.275958        -1.556024
 C        -2.548126         3.144251        -0.745404
 C        -2.685929         2.310170         0.577201
 C        -1.304201         2.278360         1.195984
 H         1.175490         1.442055         0.492887
 H        -1.629595        -1.020481         0.490628
 H        -2.214356        -0.171840         2.058198
 H        -3.763910         0.414295        -0.206379
 H        -1.369643         0.082647        -1.602901
 H        -1.921944         4.066728        -0.591962
 H        -3.574619         3.310733        -1.162026
 H        -3.404008         2.683559         1.236182
 H        -0.672770         3.136474         1.007745
 H        -1.451217         2.312880         2.251067
