19
Iteration:  3180
 O         0.550311         0.654953         0.478206
 C        -0.801130         0.966958         0.572570
 C        -1.797712        -0.118463         1.016496
 C        -2.738337         0.793923         0.095630
 C        -1.516738         1.039064        -0.883124
 O        -1.603919         2.371878        -1.593514
 C        -2.610285         3.071333        -0.724850
 C        -2.673094         2.294417         0.535252
 C        -1.277741         2.301937         1.201950
 H         0.926213         1.462169        -0.003585
 H        -1.648767        -1.048260         0.413705
 H        -2.126904        -0.197671         2.042875
 H        -3.654663         0.314060        -0.224453
 H        -1.072073         0.324941        -1.566044
 H        -2.355667         4.118341        -0.602433
 H        -3.612494         3.162795        -1.153457
 H        -3.433093         2.716198         1.250651
 H        -0.639456         3.183804         0.846699
 H        -1.359938         2.159485         2.346260
