19
Iteration:    40
 O         0.522356         0.553603         0.750583
 C        -0.728364         0.955753         0.538443
 C        -1.811867        -0.066511         0.905158
 C        -2.691900         0.821934        -0.017487
 C        -1.500214         1.107905        -0.961923
 O        -1.768145         2.402721        -1.521029
 C        -2.751669         3.100930        -0.758075
 C        -2.609904         2.291719         0.525815
 C        -1.094257         2.292233         1.051380
 H         0.681207         0.558112         1.724002
 H        -1.547128        -1.048302         0.321436
 H        -2.154345        -0.205467         1.950963
 H        -3.700975         0.472304        -0.269800
 H        -1.133416         0.441319        -1.743368
 H        -2.324011         4.126754        -0.691593
 H        -3.814639         2.962960        -1.282878
 H        -3.320973         2.560211         1.314178
 H        -0.309131         3.110409         0.724899
 H        -1.006170         2.492200         2.151082
