19
Iteration:  1777charge 0 multiplicity 1
 O         0.691256         0.622539         0.625939
 C        -0.692836         0.967887         0.561086
 C        -1.854778        -0.088868         0.934709
 C        -2.677222         0.887427         0.003037
 C        -1.593964         1.051544        -0.950247
 O        -1.756791         2.274924        -1.560786
 C        -2.684909         3.127226        -0.713768
 C        -2.674569         2.306577         0.528922
 C        -1.210589         2.355854         1.102906
 H         0.892774         0.305778         1.571786
 H        -1.677171        -1.161736         0.540441
 H        -2.044483        -0.191670         2.000631
 H        -3.698898         0.512877        -0.351243
 H        -1.115291         0.270834        -1.526799
 H        -2.211308         4.149125        -0.685829
 H        -3.751208         3.194830        -1.292474
 H        -3.539682         2.486830         1.292855
 H        -0.564186         3.114840         0.867452
 H        -1.389893         2.487610         2.207072
