19
Iteration:  2520
 O         0.650868         0.560828         0.662205
 C        -0.669184         1.013545         0.483890
 C        -1.857185        -0.059078         0.994331
 C        -2.804574         0.793310         0.055247
 C        -1.569455         1.060537        -0.835745
 O        -1.625123         2.387244        -1.530985
 C        -2.678105         3.065770        -0.829585
 C        -2.672605         2.255171         0.566229
 C        -1.238406         2.314533         1.064680
 H         1.162063         1.405244         0.453081
 H        -1.554306        -1.027004         0.675969
 H        -2.034362         0.065694         2.096748
 H        -3.739809         0.500245        -0.416374
 H        -1.556179         0.204827        -1.461173
 H        -2.649317         4.226641        -0.784937
 H        -3.702937         2.916230        -1.366724
 H        -3.458802         2.435738         1.289144
 H        -0.856105         3.336932         0.642745
 H        -0.959200         2.254007         2.060590
