19
Iteration:   955charge 0 multiplicity 1
 O         0.613036         0.592971         0.618907
 C        -0.744581         0.980544         0.523436
 C        -1.833534        -0.051870         0.978343
 C        -2.781328         0.866970        -0.013192
 C        -1.557092         1.068985        -0.887347
 O        -1.680049         2.297760        -1.637325
 C        -2.588504         3.121065        -0.775965
 C        -2.704384         2.259333         0.561578
 C        -1.220753         2.297318         1.219433
 H         1.069594         1.339479         1.051909
 H        -1.592114        -1.058924         0.542992
 H        -1.991650        -0.102214         1.994357
 H        -3.748143         0.453579        -0.285044
 H        -1.147857         0.380494        -1.660366
 H        -2.101425         4.117842        -0.695968
 H        -3.586190         3.119280        -1.316203
 H        -3.476889         2.473835         1.288557
 H        -0.633395         3.296727         1.047929
 H        -1.375594         2.034236         2.318334
