19
Iteration:  1237
 O         0.562455         0.847758         0.587110
 C        -0.782492         1.005751         0.505763
 C        -1.815577        -0.093470         0.930631
 C        -2.763113         0.802220         0.068281
 C        -1.583507         0.965304        -0.906062
 O        -1.695319         2.284302        -1.679136
 C        -2.337466         3.126040        -0.699988
 C        -2.693382         2.306186         0.536800
 C        -1.339925         2.254348         1.296945
 H         0.846449        -0.064998         0.363294
 H        -1.757171        -1.109526         0.551983
 H        -2.031798        -0.086987         1.959477
 H        -3.781810         0.416472        -0.208072
 H        -1.244838         0.050338        -1.498516
 H        -1.863961         4.101007        -0.464937
 H        -3.262714         3.326743        -1.372609
 H        -3.610809         2.506969         1.088047
 H        -0.736213         3.117356         1.193163
 H        -1.462463         2.063093         2.340599
