19
Iteration:   647charge 0 multiplicity 1
 O         0.647867         0.530250         0.643944
 C        -0.746760         0.971606         0.517695
 C        -1.844041         0.038334         1.073372
 C        -2.755504         0.792838         0.024405
 C        -1.492780         1.039474        -0.938041
 O        -1.688726         2.380526        -1.607658
 C        -2.652057         3.070922        -0.739814
 C        -2.676046         2.304725         0.515110
 C        -1.274947         2.273969         1.133849
 H         1.144429         1.318172         0.333728
 H        -1.621394        -1.021153         0.801426
 H        -2.098510         0.058992         2.152196
 H        -3.721985         0.442388        -0.478871
 H        -1.109754         0.215000        -1.536295
 H        -2.355592         4.124865        -0.660924
 H        -3.683160         3.079004        -1.264695
 H        -3.420422         2.610183         1.137006
 H        -0.777817         3.225125         0.883854
 H        -1.212081         2.285063         2.285574
