19
Iteration:   599
 O         0.549525         0.858557         0.473993
 C        -0.801593         0.895007         0.575598
 C        -1.804926        -0.128648         0.999361
 C        -2.833781         0.851279         0.122471
 C        -1.675791         1.003236        -0.895244
 O        -1.479696         2.244691        -1.547706
 C        -2.497238         3.074655        -0.837980
 C        -2.633414         2.334620         0.519791
 C        -1.304625         2.212827         1.243913
 H         0.956763         1.711129         0.267319
 H        -1.875865        -1.090183         0.493347
 H        -2.041825        -0.076924         2.079736
 H        -3.919187         0.443008         0.058949
 H        -1.455583         0.183661        -1.667859
 H        -2.089944         4.117157        -0.655567
 H        -3.354233         3.161001        -1.463393
 H        -3.588332         2.644880         1.098025
 H        -0.553264         3.051307         1.162177
 H        -1.390189         2.103261         2.342167
