19
Iteration:  2867charge 0 multiplicity 1
 O         0.656914         0.724956         0.567769
 C        -0.753929         0.987289         0.483827
 C        -1.814597         0.009100         0.995109
 C        -2.754897         0.808063         0.001724
 C        -1.550343         1.079025        -0.881826
 O        -1.673281         2.271046        -1.558455
 C        -2.600662         3.125989        -0.711455
 C        -2.722457         2.290816         0.562672
 C        -1.264904         2.244857         1.128469
 H         0.656609        -0.188998         0.797976
 H        -1.622490        -0.988253         0.544163
 H        -1.725613        -0.148771         2.061578
 H        -3.622104         0.362145        -0.459665
 H        -1.354668         0.160153        -1.466675
 H        -2.196033         4.156419        -0.615230
 H        -3.539429         2.966835        -1.228813
 H        -3.448292         2.669206         1.244420
 H        -0.706790         3.227484         1.070272
 H        -1.452066         2.133804         2.229087
