19
Iteration:  1622charge 0 multiplicity 1
 O         0.520015         0.611482         0.609548
 C        -0.719987         1.002259         0.463389
 C        -1.841872        -0.035842         0.980176
 C        -2.661114         0.810786         0.046149
 C        -1.466712         1.119444        -0.880605
 O        -1.713151         2.339220        -1.580636
 C        -2.667237         3.074109        -0.744430
 C        -2.632445         2.297219         0.512956
 C        -1.218306         2.307883         1.128859
 H         0.657194         0.595373         1.540758
 H        -1.622084        -1.114432         0.560642
 H        -2.218056        -0.280782         2.001795
 H        -3.644553         0.456017        -0.194620
 H        -1.194302         0.251351        -1.484015
 H        -2.272971         4.058098        -0.610747
 H        -3.600079         2.983150        -1.359551
 H        -3.484267         2.434420         1.251501
 H        -0.588333         3.042041         0.767917
 H        -1.265602         2.277805         2.250631
