19
Iteration:  2868
 O         0.654727         0.726079         0.562937
 C        -0.759022         0.983182         0.484167
 C        -1.810945         0.003773         0.990182
 C        -2.748542         0.804186        -0.002017
 C        -1.550493         1.067884        -0.883537
 O        -1.671275         2.269841        -1.554749
 C        -2.606815         3.137580        -0.715858
 C        -2.726701         2.294706         0.563781
 C        -1.261682         2.246486         1.139079
 H         0.666054        -0.179152         0.816301
 H        -1.614971        -1.002947         0.578787
 H        -1.721471        -0.152391         2.100410
 H        -3.631670         0.380750        -0.460847
 H        -1.369542         0.187018        -1.466557
 H        -2.155550         4.187426        -0.636168
 H        -3.552790         2.961526        -1.237228
 H        -3.450764         2.653630         1.228518
 H        -0.710724         3.249531         1.083105
 H        -1.437828         2.153418         2.221113
