19
Iteration:  4284
 O         0.615758         0.660042         0.588280
 C        -0.758514         1.009311         0.466512
 C        -1.919769        -0.093563         0.969344
 C        -2.743956         0.841936         0.087360
 C        -1.487410         1.040658        -0.867283
 O        -1.628782         2.290407        -1.541740
 C        -2.568351         3.091731        -0.769576
 C        -2.705604         2.295983         0.563677
 C        -1.244732         2.271125         1.167275
 H         1.177303         1.290046         0.056602
 H        -1.628952        -0.973316         0.417238
 H        -2.143666        -0.226861         2.024825
 H        -3.698887         0.623548        -0.402051
 H        -1.544384         0.195220        -1.502617
 H        -2.186245         4.111708        -0.765312
 H        -3.687268         2.999400        -1.130292
 H        -3.618645         2.650074         1.166608
 H        -0.652257         3.196382         0.945811
 H        -1.479567         2.255013         2.313183
