19
Iteration:  1848
 O         0.606264         0.739501         0.351117
 C        -0.798508         0.921107         0.600010
 C        -1.810295        -0.094819         1.010103
 C        -2.802702         0.831239         0.060399
 C        -1.553057         1.104140        -0.779677
 O        -1.529366         2.268693        -1.502787
 C        -2.620558         3.101721        -0.770055
 C        -2.737549         2.298952         0.517435
 C        -1.286524         2.240679         1.170742
 H         1.023205         0.865208         1.271947
 H        -1.723721        -1.117498         0.659493
 H        -2.036456        -0.105757         2.101957
 H        -3.779053         0.614803        -0.300281
 H        -1.246473         0.398012        -1.575138
 H        -2.222431         4.148775        -0.599223
 H        -3.491967         3.118829        -1.543219
 H        -3.538457         2.618660         1.104165
 H        -0.559319         2.965912         0.657174
 H        -1.160144         2.343074         2.209689
