19
Iteration:  1227charge 0 multiplicity 1
 O         0.622471         0.851437         0.562848
 C        -0.793780         1.022379         0.512527
 C        -1.823128        -0.092691         1.022027
 C        -2.743155         0.752346         0.057463
 C        -1.616116         1.038274        -0.913008
 O        -1.647314         2.221338        -1.676025
 C        -2.404406         3.177548        -0.767675
 C        -2.722185         2.331279         0.554765
 C        -1.373775         2.176510         1.308347
 H         0.630844        -0.098576         0.451601
 H        -1.606069        -1.065993         0.445651
 H        -2.056645        -0.270349         2.031419
 H        -3.734045         0.498816        -0.389587
 H        -1.240408         0.309761        -1.741145
 H        -1.619216         3.954216        -0.520258
 H        -3.368276         3.699720        -1.221583
 H        -3.508893         2.767648         1.248111
 H        -0.785075         3.010378         1.174531
 H        -1.412715         1.988014         2.308061
