19
Iteration:  4723charge 0 multiplicity 1
 O         0.542642         0.599476         0.519608
 C        -0.773465         0.956816         0.565565
 C        -1.767382        -0.076209         0.961619
 C        -2.771458         0.830275         0.119707
 C        -1.499800         1.044409        -0.888639
 O        -1.570332         2.311920        -1.582854
 C        -2.520214         3.138260        -0.846782
 C        -2.773796         2.278528         0.611432
 C        -1.296680         2.290177         1.250763
 H         0.920297         1.331114         0.002671
 H        -1.781033        -1.051573         0.460446
 H        -2.188184         0.067383         1.971308
 H        -3.919701         0.538951        -0.044265
 H        -1.239189         0.301740        -1.732674
 H        -2.121922         4.232648        -0.729300
 H        -3.570508         3.160456        -1.230766
 H        -3.674235         2.758421         1.151871
 H        -0.701324         3.188762         0.888320
 H        -1.258319         2.152743         2.265915
