19
Iteration:  2389charge 0 multiplicity 1
 O         0.651193         0.541088         0.548655
 C        -0.768341         0.944485         0.485701
 C        -1.778225         0.034226         0.985503
 C        -2.795902         0.831393         0.052907
 C        -1.513787         1.038837        -0.889459
 O        -1.633452         2.358492        -1.497339
 C        -2.699005         3.038278        -0.833105
 C        -2.749750         2.332802         0.566302
 C        -1.203365         2.295271         1.212352
 H         1.045973         1.421636         0.681402
 H        -1.614246        -0.945820         0.752949
 H        -1.891116         0.064706         2.072777
 H        -3.747724         0.331868        -0.287392
 H        -0.949933         0.340580        -1.490487
 H        -2.705618         4.166411        -0.966842
 H        -3.758655         2.881497        -1.335523
 H        -3.640394         2.462162         1.279939
 H        -0.724710         3.132026         0.546481
 H        -1.010729         2.381167         2.237088
