19
Iteration:  1287
 O         0.597722         0.654585         0.695256
 C        -0.735441         0.934515         0.514788
 C        -1.875569        -0.017991         0.974113
 C        -2.753648         0.797910         0.071497
 C        -1.517040         1.119666        -0.930069
 O        -1.593854         2.387603        -1.486159
 C        -2.712162         2.987908        -0.800074
 C        -2.658221         2.336137         0.490484
 C        -1.226045         2.261776         1.124043
 H         0.839414         0.026663         0.033059
 H        -1.796251        -1.042057         0.511939
 H        -2.063011        -0.194265         2.144140
 H        -3.690436         0.618968        -0.431244
 H        -1.251962         0.485726        -1.727862
 H        -2.428591         4.041267        -0.679890
 H        -3.534450         2.957896        -1.439864
 H        -3.337499         2.680020         1.299303
 H        -0.613384         3.098306         0.622169
 H        -1.261245         2.436494         2.267789
