19
Iteration:  1830
 O         0.617842         0.724897         0.404738
 C        -0.735672         1.004369         0.453656
 C        -1.920938        -0.041050         0.983083
 C        -2.780254         0.775224         0.090095
 C        -1.512591         0.941782        -0.839070
 O        -1.589670         2.336823        -1.440598
 C        -2.566755         3.063694        -0.798810
 C        -2.716854         2.314039         0.569952
 C        -1.278855         2.353267         1.149380
 H         0.955046         0.377202         1.296101
 H        -1.603744        -1.049308         0.481200
 H        -2.110069        -0.288795         2.001224
 H        -3.658234         0.228344        -0.251067
 H        -1.347236         0.113786        -1.578623
 H        -2.183062         4.034123        -0.679795
 H        -3.497303         3.074781        -1.253894
 H        -3.480155         2.785768         1.293111
 H        -0.789488         3.391441         0.903283
 H        -1.406261         2.234039         2.327966
