19
Iteration:  4621charge 0 multiplicity 1
 O         0.607625         0.519376         0.615041
 C        -0.767567         0.998080         0.530321
 C        -1.876530        -0.044830         0.956485
 C        -2.746596         0.838280         0.016396
 C        -1.565483         1.037396        -0.865345
 O        -1.628316         2.384427        -1.511236
 C        -2.622823         3.034691        -0.781254
 C        -2.646407         2.311252         0.528780
 C        -1.226528         2.339580         1.133004
 H         1.246614         1.199848         0.276407
 H        -1.685278        -1.068024         0.685846
 H        -2.038059        -0.081383         2.013739
 H        -3.690081         0.544906        -0.293948
 H        -1.199256         0.367345        -1.566939
 H        -2.485300         4.104599        -0.567137
 H        -3.587235         2.840763        -1.320026
 H        -3.503006         2.606332         1.173959
 H        -0.686743         3.261480         0.850455
 H        -1.431318         2.403380         2.141429
