19
Iteration:  1120
 O         0.547141         0.665733         0.630200
 C        -0.772147         0.957241         0.577674
 C        -1.850349         0.034170         0.976665
 C        -2.695776         0.823135        -0.001316
 C        -1.453454         1.108077        -0.878581
 O        -1.660215         2.313622        -1.551517
 C        -2.624224         3.052948        -0.810404
 C        -2.693820         2.285109         0.534304
 C        -1.225423         2.257627         1.170512
 H         0.670442        -0.212144         0.290836
 H        -1.346643        -0.905903         0.465427
 H        -2.189147        -0.074586         1.956538
 H        -3.713386         0.533620        -0.267671
 H        -1.234823         0.432939        -1.761077
 H        -2.353369         4.137389        -0.721495
 H        -3.643325         3.038618        -1.349516
 H        -3.409883         2.579484         1.393288
 H        -0.654789         3.199862         0.909570
 H        -1.347744         2.204730         2.275300
