19
Iteration:   313
 O         0.625498         0.783845         0.602219
 C        -0.749650         0.944326         0.450513
 C        -1.841603        -0.064606         1.014764
 C        -2.762465         0.819458         0.107235
 C        -1.645315         0.933690        -0.906034
 O        -1.630378         2.288975        -1.636268
 C        -2.548665         3.158583        -0.834711
 C        -2.691535         2.306914         0.538285
 C        -1.248800         2.189981         1.193742
 H         0.852102         1.232456         1.448230
 H        -1.697102        -1.112409         0.523439
 H        -2.104354         0.023416         2.029716
 H        -3.772508         0.631047        -0.110536
 H        -1.502200         0.215243        -1.645318
 H        -1.946817         4.108761        -0.530458
 H        -3.519992         3.287078        -1.333270
 H        -3.405110         2.737134         1.294969
 H        -0.401340         3.035574         1.093267
 H        -1.383150         2.032332         2.270878
