19
Iteration:  1760charge 0 multiplicity 1
 O         0.624718         0.630265         0.643615
 C        -0.758843         1.024668         0.472450
 C        -1.797112         0.043647         0.878066
 C        -2.811721         0.779890         0.058071
 C        -1.514598         1.078431        -0.905630
 O        -1.712651         2.300688        -1.585210
 C        -2.605954         3.030734        -0.759615
 C        -2.677482         2.281021         0.616929
 C        -1.207049         2.305416         1.153216
 H         0.945277         0.465167         1.581505
 H        -1.584440        -0.869194         0.415483
 H        -2.178037        -0.186930         1.912950
 H        -3.769457         0.461897        -0.375356
 H        -1.459095         0.258164        -1.636920
 H        -2.275533         4.054420        -0.527338
 H        -3.543908         3.061301        -1.179396
 H        -3.417511         2.647911         1.257318
 H        -0.758640         3.198318         0.533799
 H        -0.894439         2.307379         2.190796
