19
Iteration:  2373charge 0 multiplicity 1
 O         0.599523         0.592817         0.543983
 C        -0.711581         1.005424         0.508759
 C        -1.869873        -0.009001         1.021430
 C        -2.716206         0.823137         0.090070
 C        -1.553144         1.044563        -0.922337
 O        -1.575552         2.391042        -1.470296
 C        -2.736736         2.972285        -0.797760
 C        -2.664207         2.261467         0.567786
 C        -1.236030         2.354999         1.063291
 H         1.247947         1.237803         0.775036
 H        -1.710728        -1.110184         0.528275
 H        -2.206573        -0.089743         2.085064
 H        -3.709958         0.491132        -0.185076
 H        -1.494594         0.273772        -1.727652
 H        -2.516735         4.048769        -0.712954
 H        -3.648918         2.636567        -1.389295
 H        -3.363986         2.624044         1.269570
 H        -0.675016         3.204262         0.855976
 H        -1.262963         2.325800         2.219770
