19
Iteration:  2247charge 0 multiplicity 1
 O         0.548921         0.661513         0.552318
 C        -0.767552         0.999945         0.451751
 C        -1.824641        -0.041245         1.059945
 C        -2.784608         0.804070         0.070853
 C        -1.555721         0.976654        -0.929923
 O        -1.554698         2.372184        -1.436254
 C        -2.687396         2.982859        -0.747310
 C        -2.624166         2.269428         0.495960
 C        -1.231727         2.310538         1.102431
 H         1.173097         1.386441         0.319892
 H        -1.842628        -1.060911         0.739196
 H        -1.855677        -0.025360         2.254779
 H        -3.787430         0.655874        -0.491245
 H        -1.207689         0.324102        -1.736388
 H        -2.583980         4.089883        -0.677976
 H        -3.565446         2.787703        -1.292057
 H        -3.389094         2.794658         1.331385
 H        -0.654057         3.311561         0.782045
 H        -1.298983         2.382033         2.144497
