19
Iteration:   977charge 0 multiplicity 1
 O         0.575636         0.589496         0.764345
 C        -0.724538         0.960846         0.474051
 C        -1.861022        -0.058782         0.880127
 C        -2.739007         0.844189        -0.016777
 C        -1.522753         1.031100        -0.885020
 O        -1.628480         2.367435        -1.461010
 C        -2.687833         3.038434        -0.768430
 C        -2.674431         2.351082         0.628519
 C        -1.235217         2.319552         0.999080
 H         1.274952         1.159755         0.364035
 H        -1.749573        -1.058493         0.358577
 H        -1.959160        -0.170973         1.894004
 H        -3.688017         0.452714        -0.384213
 H        -1.370641         0.216644        -1.651705
 H        -2.347672         4.088922        -0.594636
 H        -3.698582         2.860661        -1.302854
 H        -3.447685         2.680880         1.325836
 H        -0.595898         3.158102         0.543395
 H        -1.052022         2.281694         2.138829
