19
Iteration:  1842
 O         0.627299         0.731992         0.365959
 C        -0.794067         0.969182         0.574778
 C        -1.823256        -0.112250         0.995482
 C        -2.800911         0.789734         0.102950
 C        -1.578166         1.066728        -0.782957
 O        -1.545362         2.302874        -1.480809
 C        -2.596331         3.091360        -0.786519
 C        -2.739748         2.328468         0.515393
 C        -1.286178         2.263926         1.125025
 H         1.096074         0.675025         1.205483
 H        -1.839284        -1.168278         0.551651
 H        -2.071640        -0.048595         2.040753
 H        -3.768073         0.506267        -0.397588
 H        -1.076738         0.309350        -1.410906
 H        -2.262589         4.089933        -0.629547
 H        -3.395537         3.145893        -1.458895
 H        -3.609145         2.646898         1.211664
 H        -0.563482         3.053636         0.750155
 H        -1.211627         2.286499         2.311569
