19
Iteration:  2518
 O         0.653522         0.559434         0.652118
 C        -0.667689         0.995103         0.482624
 C        -1.847954        -0.039476         1.000414
 C        -2.792438         0.780155         0.041521
 C        -1.585135         1.054683        -0.834643
 O        -1.622895         2.390371        -1.527001
 C        -2.669872         3.059916        -0.844924
 C        -2.689844         2.265469         0.588373
 C        -1.252250         2.319308         1.068992
 H         1.129484         1.426118         0.461536
 H        -1.526490        -1.098940         0.607702
 H        -2.045941         0.104488         2.125722
 H        -3.769295         0.477469        -0.455551
 H        -1.517036         0.200463        -1.465181
 H        -2.656815         4.217182        -0.735839
 H        -3.623226         2.929153        -1.345360
 H        -3.449091         2.528983         1.291693
 H        -0.831141         3.295762         0.628752
 H        -0.950200         2.313203         2.133026
