19
Iteration:   438charge 0 multiplicity 1
 O         0.571927         0.785764         0.533098
 C        -0.778911         0.999807         0.562280
 C        -1.858043        -0.065248         1.009071
 C        -2.734964         0.861294         0.073664
 C        -1.575024         1.016377        -0.891028
 O        -1.705433         2.186463        -1.646322
 C        -2.395247         3.126929        -0.772834
 C        -2.643484         2.312147         0.510322
 C        -1.357188         2.197973         1.293123
 H         0.944776         1.453681        -0.105501
 H        -1.701963        -1.010940         0.525442
 H        -2.090859        -0.145027         2.183465
 H        -3.721359         0.392747        -0.359995
 H        -1.136085         0.113355        -1.483331
 H        -1.912555         4.050316        -0.535042
 H        -3.286197         3.397121        -1.313080
 H        -3.535634         2.640894         0.973304
 H        -0.722513         3.052287         1.369155
 H        -1.406240         1.925263         2.412150
