19
Iteration:   704charge 0 multiplicity 1
 O         0.598132         0.586539         0.766197
 C        -0.770593         0.930040         0.509836
 C        -1.835092        -0.139759         0.874136
 C        -2.729829         0.859903         0.105627
 C        -1.548912         1.075175        -0.916645
 O        -1.704158         2.350022        -1.549370
 C        -2.686506         3.078275        -0.790606
 C        -2.654622         2.347849         0.558885
 C        -1.150147         2.326452         1.081498
 H         1.164263         1.389098         0.721083
 H        -1.607963        -1.198508         0.383004
 H        -2.169539        -0.180903         1.910458
 H        -3.693943         0.620741        -0.260115
 H        -1.226879         0.276462        -1.552008
 H        -2.313898         4.097502        -0.737628
 H        -3.643077         3.019529        -1.458390
 H        -3.545419         2.597616         1.145577
 H        -0.614548         3.041062         0.419763
 H        -0.962521         2.431756         2.167869
