19
Iteration:   566charge 0 multiplicity 1
 O         0.603556         0.644719         0.593342
 C        -0.714779         1.019254         0.556870
 C        -1.828110        -0.026192         0.952581
 C        -2.785957         0.849464         0.007566
 C        -1.505829         1.069736        -0.893832
 O        -1.688056         2.190333        -1.614161
 C        -2.568954         3.072324        -0.682400
 C        -2.681897         2.312200         0.525220
 C        -1.283013         2.299162         1.179916
 H         1.061836         1.403162         0.226116
 H        -1.913426        -1.102485         0.657440
 H        -2.157278         0.023329         2.001286
 H        -3.833592         0.510962        -0.311012
 H        -1.073295         0.166305        -1.398435
 H        -1.976334         4.023999        -0.497212
 H        -3.493822         3.205396        -1.247206
 H        -3.552717         2.580069         1.249696
 H        -0.704923         3.241958         0.880842
 H        -1.397016         2.246699         2.290766
