19
Iteration:  1728
 O         0.658465         0.714442         0.449430
 C        -0.757539         0.914838         0.526120
 C        -1.862580        -0.027795         0.990429
 C        -2.765216         0.839216         0.030426
 C        -1.559534         1.025942        -0.870662
 O        -1.607340         2.320948        -1.471180
 C        -2.625240         3.072528        -0.808531
 C        -2.683022         2.329288         0.543952
 C        -1.312893         2.234747         1.207240
 H         1.197886         0.897425         1.200714
 H        -1.708567        -1.046937         0.679639
 H        -2.214688        -0.046827         2.058193
 H        -3.655970         0.397567        -0.390506
 H        -1.429476         0.169329        -1.567070
 H        -2.328694         4.108248        -0.770171
 H        -3.538251         3.032654        -1.333183
 H        -3.497936         2.694048         1.099691
 H        -0.521459         3.135187         0.892230
 H        -1.142977         2.247474         2.318609
