19
Iteration:  3327
 O         0.724946         0.672985         0.539536
 C        -0.783897         0.991675         0.502168
 C        -1.840266        -0.009315         0.901881
 C        -2.824062         0.875822         0.070514
 C        -1.616969         1.085281        -0.847480
 O        -1.643620         2.289136        -1.526424
 C        -2.579308         3.006012        -0.733665
 C        -2.706405         2.270245         0.579755
 C        -1.275207         2.242140         1.216104
 H         1.196113         1.351578         0.089822
 H        -1.475660        -0.932435         0.467372
 H        -2.005072        -0.301555         1.937689
 H        -3.656951         0.438935        -0.568569
 H        -1.395501         0.122081        -1.426923
 H        -2.272182         4.004948        -0.649916
 H        -3.565742         2.971558        -1.213842
 H        -3.546218         2.754120         1.080760
 H        -0.857317         3.181187         0.753698
 H        -1.024966         2.289768         2.326961
