19
Iteration:  3062charge 0 multiplicity 1
 O         0.560867         0.686976         0.473050
 C        -0.788476         0.957835         0.515900
 C        -1.791021        -0.086788         0.988735
 C        -2.765934         0.752043         0.059426
 C        -1.540292         1.073251        -0.868735
 O        -1.608707         2.286268        -1.509930
 C        -2.613641         3.127825        -0.726297
 C        -2.683526         2.326571         0.517033
 C        -1.236597         2.267026         1.183762
 H         0.905078         1.545801         0.297590
 H        -1.616593        -1.051991         0.575934
 H        -2.067371        -0.085167         2.021736
 H        -3.720942         0.335411        -0.257808
 H        -1.176655         0.234756        -1.573177
 H        -2.305966         4.126743        -0.642567
 H        -3.572746         3.181520        -1.315544
 H        -3.291662         2.890169         1.340698
 H        -0.610689         3.063354         1.182904
 H        -1.557827         1.988503         2.192617
