19
Iteration:   242charge 0 multiplicity 1
 O         0.635116         0.653806         0.446453
 C        -0.789886         1.020712         0.462322
 C        -1.840031         0.048741         0.991522
 C        -2.768585         0.866760         0.100743
 C        -1.530475         1.009070        -0.850069
 O        -1.539050         2.307279        -1.519526
 C        -2.605425         3.029304        -0.780103
 C        -2.710222         2.299165         0.522675
 C        -1.321489         2.268526         1.180640
 H         0.852983         0.503277         1.390497
 H        -1.581888        -0.908398         0.657090
 H        -2.088889         0.064397         2.091307
 H        -3.779349         0.468851        -0.215343
 H        -1.333264         0.170264        -1.624377
 H        -2.173172         3.971364        -0.524636
 H        -3.597386         3.033311        -1.410211
 H        -3.592569         2.498582         1.144061
 H        -0.821484         3.192919         1.128575
 H        -1.437424         1.943791         2.261529
