19
Iteration:  3190charge 0 multiplicity 1
 O         0.595125         0.681337         0.497146
 C        -0.768202         0.934180         0.504400
 C        -1.838693        -0.106264         1.049502
 C        -2.767290         0.750051         0.066121
 C        -1.504879         1.003727        -0.871570
 O        -1.622396         2.328990        -1.577378
 C        -2.606327         3.224049        -0.765547
 C        -2.725221         2.336796         0.612067
 C        -1.267813         2.254960         1.175262
 H         1.030835         1.503098         0.081782
 H        -1.789731        -1.147073         0.528118
 H        -1.768207        -0.439251         2.071302
 H        -3.727031         0.322870        -0.232092
 H        -1.088211         0.364055        -1.597138
 H        -2.248768         4.298995        -0.648131
 H        -3.438023         3.074257        -1.379535
 H        -3.650609         2.397848         1.183887
 H        -0.808817         3.300624         1.001057
 H        -1.151008         2.206507         2.304786
