19
Iteration:  3157
 O         0.630838         0.605316         0.578273
 C        -0.711267         1.041725         0.416032
 C        -1.838193         0.024437         0.910708
 C        -2.798583         0.855657        -0.009885
 C        -1.551327         1.024848        -0.869710
 O        -1.626753         2.271188        -1.464940
 C        -2.651282         3.054953        -0.748476
 C        -2.734384         2.281690         0.641789
 C        -1.205444         2.294729         1.215365
 H         1.185114         1.162301         0.025406
 H        -1.668261        -0.994434         0.379738
 H        -1.966167         0.068141         1.985105
 H        -3.720159         0.434157        -0.429055
 H        -1.220119         0.318220        -1.573755
 H        -2.494919         4.156702        -0.852293
 H        -3.580536         2.960801        -1.290314
 H        -3.577187         2.380564         1.336298
 H        -0.870679         3.356973         0.919836
 H        -1.080715         2.011403         2.295492
