19
Iteration:  3367
 O         0.645057         0.649061         0.567838
 C        -0.698666         0.979671         0.500701
 C        -1.760018        -0.057906         1.046565
 C        -2.781866         0.780207         0.024035
 C        -1.599097         1.063732        -0.880562
 O        -1.708383         2.336233        -1.631055
 C        -2.551694         3.110471        -0.738894
 C        -2.700954         2.279849         0.543180
 C        -1.316375         2.210751         1.219911
 H         1.119047         1.480919         0.240455
 H        -1.614743        -1.021267         0.633815
 H        -1.985936        -0.065209         2.148483
 H        -3.790471         0.532063        -0.246973
 H        -1.312680         0.366756        -1.729363
 H        -2.158721         4.140875        -0.549426
 H        -3.560040         3.309059        -1.184224
 H        -3.549332         2.711337         1.200480
 H        -0.807893         3.031155         0.819117
 H        -1.237673         2.159723         2.370540
