19
Iteration:  3214
 O         0.632079         0.694418         0.577054
 C        -0.731730         0.993523         0.502333
 C        -1.791998         0.007044         0.898270
 C        -2.802574         0.869777         0.066730
 C        -1.642011         1.003598        -0.911564
 O        -1.667670         2.306243        -1.535133
 C        -2.532507         3.000337        -0.653725
 C        -2.663288         2.281270         0.540608
 C        -1.254286         2.239099         1.113308
 H         1.031791         1.538020         0.257243
 H        -1.754726        -1.006353         0.567413
 H        -2.105830        -0.114373         1.919930
 H        -3.660108         0.293786        -0.226461
 H        -1.365656         0.242110        -1.678093
 H        -2.148445         3.905431        -0.318558
 H        -3.515228         3.091467        -1.148846
 H        -3.447690         2.783719         1.188832
 H        -0.873450         3.257378         1.081869
 H        -1.383485         2.078148         2.285027
