19
Iteration:   975charge 0 multiplicity 1
 O         0.581348         0.585718         0.752099
 C        -0.724450         0.970461         0.478199
 C        -1.859968        -0.028252         0.858620
 C        -2.733850         0.824026        -0.007548
 C        -1.521014         1.035650        -0.891458
 O        -1.645309         2.356587        -1.455941
 C        -2.677089         3.037218        -0.774479
 C        -2.671695         2.359429         0.616582
 C        -1.237225         2.300879         1.031593
 H         1.315322         1.214447         0.439281
 H        -1.765632        -1.009445         0.377276
 H        -1.994614        -0.162978         1.939974
 H        -3.702149         0.455018        -0.417057
 H        -1.396528         0.177648        -1.601939
 H        -2.327106         4.082667        -0.545418
 H        -3.702406         2.881608        -1.293243
 H        -3.438082         2.716082         1.227365
 H        -0.642892         3.071922         0.602356
 H        -1.036248         2.320299         2.077095
