19
Iteration:  1299charge 0 multiplicity 1
 O         0.579975         0.595798         0.693136
 C        -0.772907         1.009844         0.480530
 C        -1.824902         0.011567         0.933961
 C        -2.759534         0.859314         0.006148
 C        -1.503207         1.053102        -0.887173
 O        -1.569085         2.398006        -1.450412
 C        -2.691209         3.040205        -0.821610
 C        -2.726671         2.258744         0.592244
 C        -1.203441         2.325465         1.050214
 H         0.717395        -0.193918         0.109026
 H        -1.560897        -0.982369         0.552493
 H        -2.135047         0.032669         2.095678
 H        -3.677905         0.320854        -0.234633
 H        -1.180370         0.290801        -1.534928
 H        -2.610599         4.116922        -0.810748
 H        -3.581263         2.708504        -1.273908
 H        -3.539150         2.564863         1.235883
 H        -0.527011         3.222518         0.768681
 H        -1.109378         2.147945         2.236247
