19
Iteration:   929charge 0 multiplicity 1
 O         0.600149         0.762062         0.431619
 C        -0.779738         0.986905         0.509010
 C        -1.841687        -0.027485         0.977044
 C        -2.772923         0.830716         0.028722
 C        -1.528029         1.048285        -0.843363
 O        -1.702401         2.221459        -1.601462
 C        -2.422140         3.109570        -0.754069
 C        -2.701172         2.305894         0.486364
 C        -1.326543         2.213133         1.341543
 H         0.904276         0.786998         1.375486
 H        -1.648480        -1.007322         0.644190
 H        -2.175361        -0.086941         2.100611
 H        -3.679756         0.241768        -0.276380
 H        -1.143506         0.350773        -1.577845
 H        -1.791529         4.025336        -0.608293
 H        -3.429881         3.311798        -1.232288
 H        -3.546043         2.729428         1.027218
 H        -0.750973         3.073127         1.237881
 H        -1.453515         2.054062         2.343597
