19
Iteration:  3252charge 0 multiplicity 1
 O         0.654299         0.554920         0.591680
 C        -0.686873         0.923381         0.571234
 C        -1.789746        -0.009136         0.927843
 C        -2.724262         0.819133         0.021368
 C        -1.512215         1.101628        -0.813227
 O        -1.788205         2.330288        -1.545288
 C        -2.676575         3.081707        -0.758226
 C        -2.709493         2.339500         0.527256
 C        -1.231597         2.270905         1.142391
 H         1.242971         1.348405         0.417243
 H        -1.641769        -0.984351         0.329059
 H        -1.889113        -0.298478         2.013749
 H        -3.701493         0.506580        -0.431879
 H        -1.259656         0.302893        -1.522715
 H        -2.427897         4.209917        -0.700924
 H        -3.682642         3.173564        -1.294374
 H        -3.440346         2.772099         1.183351
 H        -0.534023         3.115559         0.938685
 H        -1.372485         2.177237         2.178319
