19
Iteration:  3922
 O         0.615689         0.621597         0.619299
 C        -0.782138         0.991492         0.490577
 C        -1.873334        -0.038660         1.007993
 C        -2.749397         0.792378         0.035924
 C        -1.507818         1.022384        -0.945715
 O        -1.678870         2.319893        -1.569436
 C        -2.572382         3.078742        -0.735218
 C        -2.689884         2.309904         0.526882
 C        -1.250924         2.297416         1.175922
 H         1.042901         1.425354         0.197341
 H        -1.775921        -1.022121         0.523873
 H        -2.002088        -0.058936         2.096308
 H        -3.744574         0.499988         0.018639
 H        -1.128713         0.313834        -1.708249
 H        -2.249613         4.098417        -0.660535
 H        -3.510638         3.094743        -1.215795
 H        -3.514098         2.733125         1.145089
 H        -0.437769         3.089106         1.046031
 H        -1.375191         2.131939         2.354772
