19
Iteration:  2512
 O         0.650955         0.572877         0.618386
 C        -0.726454         0.940768         0.481666
 C        -1.804082         0.005105         1.001177
 C        -2.757842         0.769936         0.022873
 C        -1.598083         1.032901        -0.858390
 O        -1.614748         2.379875        -1.511759
 C        -2.659932         3.042549        -0.838176
 C        -2.746034         2.295506         0.615809
 C        -1.252958         2.335256         1.104380
 H         1.171210         1.402213         0.500858
 H        -1.631051        -0.954464         0.652496
 H        -2.057598         0.045158         2.027696
 H        -3.663085         0.421642        -0.392432
 H        -1.296185         0.252221        -1.630820
 H        -2.450720         4.073307        -0.639475
 H        -3.647566         2.874548        -1.418456
 H        -3.479499         2.796462         1.323854
 H        -0.683129         3.116856         0.603953
 H        -1.111655         2.475700         2.190812
