19
Iteration:  1657charge 0 multiplicity 1
 O         0.696877         0.686437         0.588223
 C        -0.714928         0.956677         0.484829
 C        -1.880391        -0.052661         0.930691
 C        -2.687706         0.880575         0.098518
 C        -1.563687         1.039331        -0.923031
 O        -1.664753         2.266160        -1.578035
 C        -2.595589         3.064655        -0.733215
 C        -2.687407         2.329086         0.533248
 C        -1.317161         2.269312         1.164784
 H         0.846881         0.701812         1.523725
 H        -1.794457        -1.031939         0.279169
 H        -2.207853        -0.123597         1.957250
 H        -3.781239         0.608726        -0.237733
 H        -1.528725         0.173793        -1.621506
 H        -2.183127         4.108873        -0.625449
 H        -3.560633         3.183862        -1.231527
 H        -3.627475         2.574046         1.203512
 H        -0.790639         3.228564         0.907055
 H        -1.331087         2.307961         2.279202
