19
Iteration:  1675
 O         0.569565         0.732958         0.501404
 C        -0.762965         0.975470         0.480569
 C        -1.787082        -0.060173         0.996844
 C        -2.895878         0.765990         0.043945
 C        -1.538939         1.039252        -0.852498
 O        -1.614922         2.311674        -1.536463
 C        -2.537543         3.102437        -0.804800
 C        -2.715700         2.329615         0.555624
 C        -1.241540         2.244462         1.179843
 H         0.881478         0.847958         1.387164
 H        -1.640313        -1.024844         0.541480
 H        -1.856020        -0.046441         2.097656
 H        -3.738681         0.331366        -0.339393
 H        -1.151326         0.199436        -1.419357
 H        -2.132502         4.092879        -0.679261
 H        -3.445854         3.214205        -1.559058
 H        -3.422807         2.679928         1.274869
 H        -0.566570         3.026106         1.059614
 H        -1.265320         2.022117         2.267435
