19
Iteration:  3727charge 0 multiplicity 1
 O         0.650921         0.524532         0.646211
 C        -0.732059         1.013841         0.485896
 C        -1.842168         0.014502         0.955793
 C        -2.750328         0.781639         0.011407
 C        -1.537641         1.091765        -0.905990
 O        -1.671224         2.336944        -1.500648
 C        -2.667713         3.079482        -0.751843
 C        -2.730123         2.289418         0.589017
 C        -1.221135         2.313124         1.076537
 H         1.262009         1.247377         0.352089
 H        -1.815068        -1.064397         0.734978
 H        -2.130233         0.093809         2.080908
 H        -3.698154         0.410515        -0.247061
 H        -0.988113         0.232831        -1.365101
 H        -2.219670         4.145477        -0.778743
 H        -3.654533         2.838414        -1.287535
 H        -3.598442         2.634145         1.231614
 H        -0.795249         3.243600         0.613921
 H        -1.080036         2.243283         2.081885
