19
Iteration:  1573charge 0 multiplicity 1
 O         0.526599         0.754884         0.418290
 C        -0.784928         0.907483         0.544029
 C        -1.922981        -0.057539         1.020133
 C        -2.751841         0.818497         0.057776
 C        -1.465059         1.009709        -0.890387
 O        -1.529422         2.346881        -1.487178
 C        -2.610499         3.013119        -0.761596
 C        -2.675854         2.355047         0.535476
 C        -1.291106         2.273250         1.177409
 H         1.092539         0.801075         1.246180
 H        -1.734991        -1.055517         0.750711
 H        -1.975697        -0.206969         2.124391
 H        -3.742452         0.648541        -0.489719
 H        -1.203122         0.123695        -1.493053
 H        -2.153472         4.049709        -0.728848
 H        -3.560541         2.927139        -1.474849
 H        -3.472395         2.649200         1.203283
 H        -0.756734         3.225686         0.805614
 H        -1.236652         2.196588         2.231650
