19
Iteration:  3188charge 0 multiplicity 1
 O         0.580859         0.675810         0.489671
 C        -0.775642         0.938485         0.527402
 C        -1.831950        -0.113262         1.051685
 C        -2.761627         0.759935         0.073515
 C        -1.501402         1.000756        -0.879656
 O        -1.615011         2.340285        -1.592924
 C        -2.605969         3.201332        -0.755152
 C        -2.715699         2.336538         0.603886
 C        -1.262633         2.264584         1.180365
 H         0.970186         1.494621         0.066179
 H        -1.803494        -1.152761         0.502116
 H        -1.816327        -0.468613         2.106570
 H        -3.710869         0.260075        -0.216291
 H        -1.031770         0.395368        -1.593219
 H        -2.300134         4.349522        -0.631527
 H        -3.489623         3.081369        -1.335349
 H        -3.601455         2.428343         1.170867
 H        -0.837357         3.305572         1.004178
 H        -1.189582         2.205693         2.226888
