19
Iteration:  1419charge 0 multiplicity 1
 O         0.676519         0.669697         0.584688
 C        -0.778250         1.037395         0.575492
 C        -1.942092        -0.003955         0.950734
 C        -2.790822         0.782195         0.012916
 C        -1.495575         1.062913        -0.867726
 O        -1.592339         2.278472        -1.546901
 C        -2.587377         3.073248        -0.740219
 C        -2.741136         2.261505         0.505855
 C        -1.245821         2.300829         1.211371
 H         0.835280         0.622659        -0.345179
 H        -1.936152        -0.979333         0.520308
 H        -2.109169         0.140684         2.095803
 H        -3.767691         0.468447        -0.476161
 H        -1.284547         0.232257        -1.492441
 H        -2.072744         4.036100        -0.611276
 H        -3.506140         3.120551        -1.368113
 H        -3.462845         2.512062         1.287950
 H        -0.609013         3.202059         1.049209
 H        -1.272472         2.123304         2.232093
