19
Iteration:  4954
 O         0.546529         0.575435         0.720792
 C        -0.723874         0.905050         0.442093
 C        -1.801601        -0.032382         0.936704
 C        -2.763649         0.852024         0.110597
 C        -1.512028         1.083574        -0.937608
 O        -1.700673         2.345766        -1.596829
 C        -2.614296         3.062181        -0.775139
 C        -2.725399         2.308500         0.569275
 C        -1.163710         2.299079         1.175482
 H         1.064526         1.387855         0.487502
 H        -1.750488        -0.987835         0.410005
 H        -2.253771        -0.147496         1.927115
 H        -3.659219         0.351804        -0.347876
 H        -1.301625         0.293272        -1.704331
 H        -2.219987         4.093548        -0.553800
 H        -3.531209         3.378305        -1.310669
 H        -3.479073         2.604635         1.276023
 H        -0.490226         3.003419         0.592245
 H        -1.076412         2.359590         2.261640
