19
Iteration:  4328charge 0 multiplicity 1
 O         0.544681         0.546014         0.632567
 C        -0.708628         0.961678         0.470808
 C        -1.834158        -0.057596         1.022417
 C        -2.682586         0.789624         0.070880
 C        -1.517643         1.046734        -0.880296
 O        -1.628209         2.390896        -1.539758
 C        -2.699681         3.097765        -0.763944
 C        -2.668929         2.316357         0.528704
 C        -1.294935         2.334818         1.080398
 H         1.188979         1.199334         0.247482
 H        -1.713471        -1.016076         0.573310
 H        -2.077283        -0.116710         2.080050
 H        -3.584486         0.358730        -0.356352
 H        -1.182567         0.326279        -1.542979
 H        -2.358681         4.068662        -0.462327
 H        -3.686636         3.067668        -1.462773
 H        -3.349708         2.653613         1.355810
 H        -0.745472         3.237646         0.820745
 H        -1.093619         2.173336         2.189274
