19
Iteration:  2869
 O         0.652017         0.728060         0.558266
 C        -0.763039         0.979961         0.484035
 C        -1.806800        -0.002218         0.985321
 C        -2.742825         0.801255        -0.003913
 C        -1.550447         1.056962        -0.884313
 O        -1.669366         2.269452        -1.551356
 C        -2.612142         3.147270        -0.720393
 C        -2.728701         2.298192         0.563361
 C        -1.259181         2.249687         1.150320
 H         0.680015        -0.186408         0.837175
 H        -1.609236        -1.016829         0.609000
 H        -1.728568        -0.150298         2.131615
 H        -3.646251         0.397182        -0.460410
 H        -1.378689         0.209294        -1.477539
 H        -2.125585         4.204380        -0.657182
 H        -3.568445         2.968214        -1.248623
 H        -3.465982         2.641962         1.224721
 H        -0.717655         3.257889         1.089189
 H        -1.418858         2.167857         2.216229
