19
Iteration:  3199charge 0 multiplicity 1
 O         0.666454         0.701316         0.536924
 C        -0.742399         0.947534         0.418323
 C        -1.827892        -0.064608         0.971103
 C        -2.779070         0.763688         0.052795
 C        -1.565787         1.039549        -0.849975
 O        -1.652080         2.276953        -1.478233
 C        -2.592882         3.182119        -0.788082
 C        -2.764366         2.297728         0.593377
 C        -1.295339         2.237167         1.203393
 H         1.222682         1.465391         0.199580
 H        -1.600502        -1.107045         0.538227
 H        -1.894464        -0.010498         2.083722
 H        -3.775988         0.548382        -0.360394
 H        -1.439131         0.241451        -1.535620
 H        -1.961382         4.167056        -0.685516
 H        -3.454829         3.333851        -1.437265
 H        -3.554163         2.548869         1.268502
 H        -0.591221         3.028665         0.819908
 H        -1.187400         2.107020         2.235133
