19
Iteration:   581
 O         0.681227         0.772369         0.538749
 C        -0.784918         0.983879         0.428939
 C        -1.939555         0.002172         0.981170
 C        -2.790790         0.835186         0.064109
 C        -1.563890         0.947622        -0.829507
 O        -1.623495         2.227480        -1.549659
 C        -2.468297         3.077168        -0.811245
 C        -2.722035         2.334061         0.579216
 C        -1.308643         2.204167         1.247704
 H         1.153517         1.577065         0.240671
 H        -1.691639        -0.985509         0.662783
 H        -2.067023        -0.120499         2.088479
 H        -3.739295         0.481002        -0.408855
 H        -1.389625         0.178844        -1.606871
 H        -2.048298         4.099941        -0.761625
 H        -3.518251         3.214465        -1.326045
 H        -3.438990         2.787584         1.147281
 H        -0.721832         3.113327         1.143214
 H        -1.339327         1.859860         2.343593
