19
Iteration:  1395charge 0 multiplicity 1
 O         0.588733         0.803176         0.618984
 C        -0.783342         0.968504         0.556791
 C        -1.810395        -0.152647         0.980017
 C        -2.741916         0.816551         0.023808
 C        -1.564006         1.052779        -0.885568
 O        -1.675719         2.254773        -1.601983
 C        -2.460315         3.122760        -0.784325
 C        -2.719976         2.401972         0.548539
 C        -1.302244         2.213797         1.221180
 H         0.878323         0.238319        -0.119801
 H        -1.793759        -1.159187         0.571290
 H        -2.043118        -0.059860         1.992207
 H        -3.755154         0.612471        -0.303535
 H        -1.344967         0.250973        -1.541237
 H        -1.797716         4.020522        -0.646431
 H        -3.429592         3.360333        -1.341630
 H        -3.653558         2.546974         1.139243
 H        -0.590548         3.031067         1.124475
 H        -1.308293         1.972008         2.204318
