19
Iteration:   924
 O         0.626207         0.795034         0.428802
 C        -0.787635         0.988551         0.523359
 C        -1.842652         0.004690         0.961875
 C        -2.839223         0.840133        -0.031326
 C        -1.563139         1.059848        -0.832042
 O        -1.691117         2.172156        -1.543019
 C        -2.388034         3.110020        -0.765458
 C        -2.708783         2.279042         0.512895
 C        -1.307964         2.226895         1.282276
 H         0.979276         0.649051         1.328828
 H        -1.686652        -1.061196         0.540867
 H        -2.012368        -0.127711         2.038160
 H        -3.762790         0.354455        -0.267112
 H        -1.102357         0.260511        -1.457261
 H        -1.847083         4.023194        -0.552982
 H        -3.323721         3.323010        -1.244281
 H        -3.650071         2.596005         1.070004
 H        -0.695780         3.222754         1.371410
 H        -1.429055         1.995793         2.439770
