19
Iteration:  4280
 O         0.590037         0.668244         0.581052
 C        -0.724627         0.966258         0.496118
 C        -1.905717        -0.091646         0.963833
 C        -2.754211         0.839274         0.071779
 C        -1.520856         1.089608        -0.828517
 O        -1.647820         2.292282        -1.544872
 C        -2.541542         3.095704        -0.783934
 C        -2.732148         2.301516         0.541156
 C        -1.235372         2.250626         1.173876
 H         1.042111         1.359785         0.103240
 H        -1.513722        -1.057709         0.487982
 H        -1.938079        -0.222478         2.080214
 H        -3.741378         0.622768        -0.386243
 H        -1.446655         0.126123        -1.519894
 H        -2.093313         4.177548        -0.750260
 H        -3.651456         2.963261        -1.219324
 H        -3.661397         2.640269         1.101825
 H        -0.623542         3.182919         0.999080
 H        -1.289859         2.238387         2.189245
