19
Iteration:  4557
 O         0.555826         0.659637         0.599676
 C        -0.771073         0.973789         0.496136
 C        -1.795653        -0.081667         0.949101
 C        -2.785119         0.832112         0.014720
 C        -1.574862         1.008621        -0.793373
 O        -1.647965         2.267866        -1.599488
 C        -2.535888         3.149279        -0.794040
 C        -2.748323         2.343564         0.531299
 C        -1.237631         2.268150         1.258945
 H         1.124897         1.290096         0.081958
 H        -1.609156        -1.067594         0.413187
 H        -1.798286        -0.216992         2.036719
 H        -3.787547         0.587526        -0.378296
 H        -1.169154         0.185038        -1.320119
 H        -2.073897         4.210509        -0.635060
 H        -3.401066         3.168858        -1.370687
 H        -3.579403         2.629779         1.253648
 H        -0.470505         3.116571         0.946026
 H        -1.201762         2.144735         2.290464
