19
Iteration:  1791
 O         0.662737         0.658662         0.595089
 C        -0.749029         0.954161         0.517804
 C        -1.856809        -0.065326         1.018985
 C        -2.728090         0.753138         0.067426
 C        -1.448613         1.070686        -0.865770
 O        -1.766174         2.355829        -1.619962
 C        -2.680387         3.118707        -0.793069
 C        -2.626425         2.333086         0.517829
 C        -1.219477         2.276832         1.158115
 H         0.789499         0.225698         1.423859
 H        -1.685387        -0.972074         0.518382
 H        -2.235901        -0.170622         2.100941
 H        -3.761362         0.462724        -0.373463
 H        -1.308636         0.436933        -1.756621
 H        -2.321419         4.230200        -0.623182
 H        -3.779126         3.151532        -1.286236
 H        -3.397282         2.683550         1.202071
 H        -0.640967         3.114335         0.822796
 H        -1.110869         2.131827         2.181239
