19
Iteration:  2460charge 0 multiplicity 1
 O         0.655858         0.729701         0.594429
 C        -0.743859         0.935548         0.519454
 C        -1.825832        -0.016212         0.958872
 C        -2.765928         0.815832         0.092469
 C        -1.523057         0.999813        -0.948651
 O        -1.715501         2.206586        -1.589572
 C        -2.567149         3.138846        -0.742557
 C        -2.684296         2.318085         0.517622
 C        -1.295049         2.278192         1.234212
 H         1.057266         1.485892         0.148024
 H        -1.728834        -1.120643         0.505682
 H        -1.932797        -0.200109         2.032168
 H        -3.847099         0.634544         0.061249
 H        -1.308157         0.218253        -1.762470
 H        -2.142978         4.101305        -0.582901
 H        -3.487705         3.156186        -1.212859
 H        -3.629427         2.691513         0.979198
 H        -0.706142         3.132529         1.050525
 H        -1.272735         2.092558         2.398888
