19
Iteration:  4905
 O         0.609652         0.583893         0.573983
 C        -0.719972         1.009507         0.495139
 C        -1.888521        -0.035081         1.019571
 C        -2.814728         0.875030         0.038714
 C        -1.511381         1.048124        -0.832751
 O        -1.595448         2.321215        -1.580246
 C        -2.628454         3.088782        -0.789968
 C        -2.691462         2.303933         0.534966
 C        -1.236693         2.243544         1.196201
 H         1.171583         1.267256         0.172758
 H        -1.889178        -1.005957         0.460664
 H        -2.088149        -0.023218         2.095730
 H        -3.803289         0.476952        -0.212083
 H        -1.135342         0.334686        -1.606239
 H        -2.299796         4.148620        -0.711814
 H        -3.610471         2.999247        -1.340538
 H        -3.377448         2.555761         1.409631
 H        -0.757102         3.135307         0.856599
 H        -1.356359         2.038820         2.306433
