19
Iteration:  3345
 O         0.521151         0.698649         0.537734
 C        -0.762949         1.021389         0.458582
 C        -1.772577        -0.058692         0.911976
 C        -2.749969         0.785242         0.082126
 C        -1.505746         1.008940        -0.894921
 O        -1.660094         2.264288        -1.546070
 C        -2.590148         3.080577        -0.746822
 C        -2.677132         2.327329         0.595550
 C        -1.247690         2.312279         1.222079
 H         1.053236         1.368419         0.132660
 H        -1.734681        -1.055414         0.499277
 H        -1.947573        -0.086565         2.012755
 H        -3.742800         0.372853        -0.068123
 H        -1.239592         0.209329        -1.657716
 H        -2.203058         4.109333        -0.682116
 H        -3.526104         3.225340        -1.313739
 H        -3.466698         2.478555         1.407934
 H        -0.588761         3.146288         1.250636
 H        -1.523027         1.917947         2.279334
