19
Iteration:  4567charge 0 multiplicity 1
 O         0.634456         0.650981         0.603067
 C        -0.773504         0.999913         0.544647
 C        -1.888639        -0.044171         0.911936
 C        -2.826705         0.806819         0.085876
 C        -1.552377         0.987921        -0.919179
 O        -1.619290         2.247204        -1.529649
 C        -2.530229         3.138601        -0.787394
 C        -2.735472         2.319595         0.535944
 C        -1.225818         2.284725         1.233379
 H         1.027606         1.271357        -0.086636
 H        -1.494027        -0.922681         0.363695
 H        -2.036158        -0.239820         1.979905
 H        -3.725876         0.309698        -0.187954
 H        -1.311163         0.251598        -1.630088
 H        -2.191261         4.234970        -0.659390
 H        -3.378627         3.310346        -1.335987
 H        -3.559371         2.733595         1.189056
 H        -0.772953         3.323817         0.945068
 H        -1.224060         2.246332         2.263885
