19
Iteration:  2078
 O         0.576346         0.570966         0.664156
 C        -0.729217         0.949937         0.437560
 C        -1.807585        -0.048164         1.028799
 C        -2.708133         0.765165         0.087430
 C        -1.467945         1.124132        -0.931536
 O        -1.664366         2.348293        -1.590119
 C        -2.710503         3.061598        -0.745771
 C        -2.727378         2.344181         0.593108
 C        -1.243604         2.328728         1.114958
 H         1.162769         1.220690         0.163743
 H        -1.617062        -1.116351         0.605535
 H        -1.989678        -0.149101         2.065616
 H        -3.658436         0.373546        -0.237966
 H        -1.255403         0.271901        -1.651736
 H        -2.442212         4.186145        -0.572134
 H        -3.597355         2.986568        -1.258100
 H        -3.624189         2.719105         1.110917
 H        -0.606273         3.019391         0.547893
 H        -1.049069         2.289417         2.304168
