19
Iteration:   951charge 0 multiplicity 1
 O         0.598808         0.618226         0.589250
 C        -0.758446         0.981182         0.543452
 C        -1.841278        -0.078781         0.997872
 C        -2.751996         0.832471        -0.009480
 C        -1.540283         1.064171        -0.902733
 O        -1.679357         2.311201        -1.680842
 C        -2.571656         3.137741        -0.798128
 C        -2.686304         2.277243         0.606800
 C        -1.253684         2.304201         1.214108
 H         1.155809         1.223243         1.105815
 H        -1.685306        -1.058385         0.633345
 H        -1.917422        -0.161171         2.171862
 H        -3.800434         0.521834        -0.298888
 H        -1.176157         0.266309        -1.556609
 H        -2.084991         4.119554        -0.583801
 H        -3.556774         3.183751        -1.319401
 H        -3.507316         2.425647         1.299810
 H        -0.724955         3.180642         1.258258
 H        -1.387367         2.026051         2.194155
