19
Iteration:  4359
 O         0.581182         0.587919         0.619246
 C        -0.701039         1.023263         0.492343
 C        -1.872563         0.007547         0.950582
 C        -2.714580         0.792008         0.011136
 C        -1.593987         1.054433        -0.847932
 O        -1.645605         2.321119        -1.554157
 C        -2.644697         3.047931        -0.799587
 C        -2.669063         2.288865         0.595070
 C        -1.211613         2.269638         1.147542
 H         1.240885         1.269349         0.717332
 H        -1.664668        -0.938180         0.420055
 H        -2.109454        -0.095748         2.024476
 H        -3.615749         0.493783        -0.509376
 H        -1.307298         0.190317        -1.447223
 H        -2.499355         4.139787        -0.567299
 H        -3.638112         3.204143        -1.256012
 H        -3.442388         2.754987         1.334339
 H        -0.843869         3.283777         0.773653
 H        -1.014462         2.160511         2.151759
