19
Iteration:  2338
 O         0.626862         0.680408         0.605167
 C        -0.724288         0.993415         0.545083
 C        -1.845841        -0.039161         0.998327
 C        -2.701487         0.826830         0.098126
 C        -1.587711         1.028570        -0.984159
 O        -1.702354         2.268542        -1.575575
 C        -2.600515         3.090070        -0.751353
 C        -2.656646         2.257243         0.547278
 C        -1.265935         2.315891         1.138196
 H         1.232857         1.410057         0.638253
 H        -1.697485        -1.036506         0.398865
 H        -2.324341        -0.330833         1.961256
 H        -3.659702         0.376585        -0.041846
 H        -1.428172         0.187388        -1.730495
 H        -2.225382         4.064453        -0.519924
 H        -3.478259         3.204185        -1.371311
 H        -3.390322         2.581948         1.328693
 H        -0.718580         3.153107         0.770446
 H        -1.328699         2.347830         2.266666
