19
Iteration:  2525
 O         0.637114         0.581331         0.685674
 C        -0.713134         1.040304         0.475437
 C        -1.877037        -0.056530         0.976906
 C        -2.794173         0.840135         0.098926
 C        -1.522755         1.069155        -0.855881
 O        -1.635067         2.367130        -1.536687
 C        -2.733130         3.070955        -0.781910
 C        -2.652067         2.235329         0.507863
 C        -1.183693         2.318931         1.041684
 H         1.300248         1.241802         0.446942
 H        -1.601251        -1.151794         0.741963
 H        -2.033439        -0.099202         2.039709
 H        -3.760740         0.501898        -0.315681
 H        -1.492906         0.215976        -1.629790
 H        -2.483100         4.091689        -0.881610
 H        -3.695909         2.873504        -1.303126
 H        -3.470148         2.334279         1.287338
 H        -0.839812         3.246463         0.745444
 H        -1.056902         2.170111         2.205094
