19
Iteration:  2498
 O         0.555884         0.618168         0.540807
 C        -0.760508         1.026553         0.516749
 C        -1.836598        -0.035481         1.002634
 C        -2.755279         0.831240         0.107077
 C        -1.455037         1.050783        -0.954807
 O        -1.607550         2.271942        -1.464786
 C        -2.667925         3.015053        -0.724068
 C        -2.712531         2.326473         0.484987
 C        -1.246675         2.315457         1.120924
 H         1.094813         1.401883         0.503933
 H        -1.693493        -1.007909         0.568564
 H        -1.956574        -0.003500         2.120474
 H        -3.715730         0.324695        -0.087410
 H        -1.153580         0.292236        -1.648551
 H        -2.288773         4.102187        -0.776440
 H        -3.649800         3.123106        -1.338928
 H        -3.561065         2.487939         1.128816
 H        -0.620844         3.234615         0.777635
 H        -1.230055         2.255096         2.168339
