19
Iteration:  4322
 O         0.552756         0.566674         0.635890
 C        -0.758644         1.012294         0.453844
 C        -1.817625        -0.044950         1.035040
 C        -2.718203         0.811362         0.072828
 C        -1.507350         1.058817        -0.860154
 O        -1.632902         2.392106        -1.533815
 C        -2.695602         3.091289        -0.783240
 C        -2.669449         2.287512         0.515498
 C        -1.266364         2.285072         1.119530
 H         1.237243         1.104381         0.173772
 H        -1.633718        -1.083334         0.631455
 H        -2.183687        -0.202088         2.075710
 H        -3.526046         0.313789        -0.497639
 H        -1.376330         0.280430        -1.718061
 H        -2.295055         4.127204        -0.601726
 H        -3.534640         2.991937        -1.343702
 H        -3.322877         2.597432         1.298552
 H        -0.624964         3.110460         0.742894
 H        -1.078647         2.221884         2.243419
