19
Iteration:  1545charge 0 multiplicity 1
 O         0.592584         0.773289         0.465906
 C        -0.753433         1.004858         0.493558
 C        -1.927402        -0.007351         0.937969
 C        -2.811140         0.812481         0.084110
 C        -1.572157         1.007640        -0.829524
 O        -1.591112         2.244914        -1.513662
 C        -2.490046         3.052514        -0.808937
 C        -2.696930         2.283280         0.531707
 C        -1.257713         2.273333         1.234823
 H         1.108551         1.009594         1.274512
 H        -1.746912        -1.028583         0.388929
 H        -1.988780        -0.372100         1.985109
 H        -3.691077         0.499727        -0.371377
 H        -1.312428         0.155614        -1.492326
 H        -2.072753         4.027510        -0.740777
 H        -3.358389         3.294441        -1.379814
 H        -3.548909         2.592072         1.176247
 H        -0.817826         3.247419         1.102610
 H        -1.305073         1.982640         2.363139
