19
Iteration:  1667
 O         0.641561         0.711396         0.551381
 C        -0.780813         0.980555         0.468241
 C        -1.845414        -0.045949         0.918063
 C        -2.781017         0.838059         0.121498
 C        -1.542419         1.030263        -0.861429
 O        -1.612754         2.272169        -1.556536
 C        -2.604238         3.121298        -0.814693
 C        -2.694120         2.280431         0.552623
 C        -1.280594         2.266291         1.170126
 H         0.945542         0.759271         1.446127
 H        -1.703174        -1.163242         0.632735
 H        -1.942817        -0.130756         1.995639
 H        -3.742866         0.383824        -0.282277
 H        -1.323691         0.293858        -1.651601
 H        -2.062586         4.043115        -0.531274
 H        -3.622519         3.323875        -1.328744
 H        -3.474070         2.835393         1.217858
 H        -0.671754         3.118452         0.956886
 H        -1.333713         1.967716         2.238531
