19
Iteration:    16
 O         0.765776         0.583275         0.730696
 C        -0.683634         0.912534         0.398534
 C        -1.874859        -0.021941         0.887099
 C        -2.787675         0.888431         0.026859
 C        -1.602314         1.068768        -0.934039
 O        -1.619334         2.409523        -1.555841
 C        -2.672632         3.088011        -0.724964
 C        -2.709351         2.292443         0.565778
 C        -1.265882         2.236753         1.094714
 H         0.774517         0.666112         1.718316
 H        -1.867489        -1.053434         0.587074
 H        -2.167650         0.167758         1.995279
 H        -3.766332         0.445088        -0.334636
 H        -1.558240         0.218473        -1.703276
 H        -2.394318         4.178934        -0.694857
 H        -3.714700         2.758086        -1.201097
 H        -3.510884         2.621245         1.276865
 H        -0.662438         3.097797         0.854859
 H        -1.124272         2.255787         2.203168
