19
Iteration:   383charge 0 multiplicity 1
 O         0.570469         0.543480         0.708135
 C        -0.718706         0.927437         0.470657
 C        -1.779844        -0.013341         1.018644
 C        -2.737833         0.841720         0.036043
 C        -1.503939         1.038500        -0.908495
 O        -1.602576         2.398472        -1.525858
 C        -2.753792         3.088252        -0.852380
 C        -2.730370         2.353979         0.585106
 C        -1.248118         2.263624         1.080476
 H         1.274615         1.015673         0.220739
 H        -1.664637        -1.084686         0.857134
 H        -2.024650         0.351184         2.123023
 H        -3.655730         0.309551        -0.421722
 H        -1.195329         0.145570        -1.617252
 H        -2.451402         4.088505        -0.756462
 H        -3.644577         2.931960        -1.404746
 H        -3.451748         2.672982         1.300962
 H        -0.725242         3.146316         0.704033
 H        -1.093497         2.166797         2.195089
