19
Iteration:  3238charge 0 multiplicity 1
 O         0.569314         0.636083         0.615595
 C        -0.786180         1.026063         0.462055
 C        -1.758204        -0.144317         0.896880
 C        -2.735320         0.839316         0.061825
 C        -1.557690         1.110837        -0.875762
 O        -1.721814         2.290860        -1.586077
 C        -2.660967         3.107259        -0.821164
 C        -2.671992         2.326658         0.627241
 C        -1.160571         2.234045         1.253567
 H         1.068424         1.400228         0.384593
 H        -1.580044        -1.131703         0.700159
 H        -2.135021         0.002787         1.911571
 H        -3.609680         0.381844        -0.413638
 H        -1.233949         0.291743        -1.636937
 H        -2.196654         4.015223        -0.719549
 H        -3.672470         3.145935        -1.312757
 H        -3.478985         2.578561         1.377558
 H        -0.639268         3.082716         0.863544
 H        -0.931743         2.218421         2.390604
