19
Iteration:   382charge 0 multiplicity 1
 O         0.564671         0.533494         0.701860
 C        -0.723578         0.937522         0.476770
 C        -1.777702        -0.008040         1.019746
 C        -2.734996         0.836299         0.037538
 C        -1.494149         1.037693        -0.907552
 O        -1.609353         2.404540        -1.520723
 C        -2.753917         3.081776        -0.855644
 C        -2.723687         2.364083         0.584539
 C        -1.250134         2.256541         1.077522
 H         1.258240         1.023867         0.247109
 H        -1.665281        -1.113423         0.893681
 H        -2.041161         0.347172         2.098960
 H        -3.635944         0.320908        -0.416804
 H        -1.158985         0.181719        -1.605529
 H        -2.459751         4.124694        -0.749119
 H        -3.637151         2.885815        -1.431915
 H        -3.420594         2.644492         1.310251
 H        -0.750240         3.177623         0.651980
 H        -1.093758         2.145192         2.186099
