19
Iteration:  3697
 O         0.545078         0.606544         0.658714
 C        -0.772687         0.976835         0.524604
 C        -1.764440        -0.080121         0.964994
 C        -2.675042         0.832162         0.034005
 C        -1.599577         1.073784        -0.958861
 O        -1.677455         2.338697        -1.537445
 C        -2.657616         3.069697        -0.808895
 C        -2.637260         2.318958         0.562531
 C        -1.207364         2.298774         1.162983
 H         1.045742         1.330598         0.291964
 H        -1.749866        -1.154248         0.698890
 H        -2.038599        -0.065240         2.000614
 H        -3.749570         0.444504        -0.110202
 H        -1.249320         0.174230        -1.473600
 H        -2.343355         4.123307        -0.912014
 H        -3.600630         2.982496        -1.285524
 H        -3.518990         2.575415         1.183075
 H        -0.607725         3.176444         0.826469
 H        -1.118335         2.224242         2.338107
