19
Iteration:  3427charge 0 multiplicity 1
 O         0.623025         0.566916         0.627006
 C        -0.688336         0.961171         0.441558
 C        -1.811998        -0.029287         0.977304
 C        -2.761069         0.809146         0.117609
 C        -1.531495         1.102832        -0.880501
 O        -1.645360         2.382287        -1.500523
 C        -2.775903         3.038845        -0.816309
 C        -2.703521         2.310986         0.516958
 C        -1.167568         2.273300         1.137716
 H         1.307302         1.276913         0.498816
 H        -1.816527        -0.988149         0.317829
 H        -2.114556        -0.203421         2.015783
 H        -3.782921         0.426412        -0.167351
 H        -1.432234         0.365957        -1.656846
 H        -2.492570         4.053432        -0.613759
 H        -3.657687         2.961123        -1.397327
 H        -3.441116         2.675411         1.188938
 H        -0.623121         3.281930         0.884752
 H        -1.123666         2.174471         2.249567
