19
Iteration:  3036charge 0 multiplicity 1
 O         0.692430         0.695882         0.547794
 C        -0.739622         0.986382         0.465377
 C        -1.873671         0.021371         0.882834
 C        -2.806713         0.829678         0.043397
 C        -1.579055         1.052301        -0.915862
 O        -1.556034         2.242648        -1.543633
 C        -2.576947         3.046295        -0.669596
 C        -2.861717         2.240780         0.642969
 C        -1.231972         2.292712         1.238533
 H         0.984819         1.204490        -0.197979
 H        -1.648458        -1.016858         0.408026
 H        -2.175114        -0.043088         1.949101
 H        -3.732678         0.322938        -0.296815
 H        -1.484575         0.231753        -1.533708
 H        -2.173851         4.093617        -0.481789
 H        -3.486347         3.127271        -1.391545
 H        -3.577365         2.679198         1.325427
 H        -0.737690         3.316844         0.849774
 H        -0.927022         2.247239         2.328001
