19
Iteration:  1814charge 0 multiplicity 1
 O         0.610509         0.689308         0.503867
 C        -0.784522         1.026526         0.466601
 C        -1.790866         0.019029         0.962193
 C        -2.754127         0.860094         0.036655
 C        -1.595841         1.058314        -0.937446
 O        -1.581775         2.247450        -1.540273
 C        -2.628354         3.016385        -0.708220
 C        -2.688814         2.272249         0.585269
 C        -1.256045         2.313201         1.203599
 H         0.890408         0.218638         1.338428
 H        -1.688391        -0.963550         0.616807
 H        -2.077320         0.098105         2.063590
 H        -3.785818         0.656415        -0.330831
 H        -1.274245         0.185679        -1.569335
 H        -2.331947         4.123989        -0.592230
 H        -3.642083         2.922898        -1.308829
 H        -3.529752         2.429186         1.185132
 H        -0.665771         3.216035         0.904314
 H        -1.183609         2.156860         2.236764
