19
Iteration:  4254
 O         0.589339         0.668112         0.557718
 C        -0.734328         1.026316         0.451031
 C        -1.881886        -0.044206         0.986897
 C        -2.757771         0.762237         0.079005
 C        -1.551373         0.974028        -0.947493
 O        -1.622031         2.275824        -1.560654
 C        -2.538237         3.140199        -0.721916
 C        -2.689781         2.306221         0.571637
 C        -1.305276         2.294638         1.172762
 H         1.161769         1.424975         0.528518
 H        -1.575031        -0.994089         0.568700
 H        -2.144824        -0.202610         2.052726
 H        -3.760841         0.453107        -0.196976
 H        -1.414311         0.137329        -1.566932
 H        -1.979182         4.040429        -0.649669
 H        -3.463778         3.256593        -1.135706
 H        -3.453497         2.641577         1.197670
 H        -0.721792         3.171771         1.071067
 H        -1.437645         2.268694         2.342468
