19
Iteration:  1831
 O         0.618566         0.725431         0.403012
 C        -0.739395         1.003479         0.456221
 C        -1.918693        -0.050226         0.981354
 C        -2.780979         0.774005         0.096189
 C        -1.516424         0.945601        -0.834844
 O        -1.590967         2.342604        -1.438449
 C        -2.559523         3.063544        -0.805894
 C        -2.722261         2.317610         0.567460
 C        -1.274625         2.352442         1.146105
 H         0.995263         0.392561         1.276869
 H        -1.625751        -1.053596         0.485790
 H        -2.111963        -0.277661         2.014222
 H        -3.664926         0.200988        -0.273971
 H        -1.307670         0.098702        -1.531506
 H        -2.178973         4.052893        -0.670598
 H        -3.512504         3.080714        -1.260580
 H        -3.487277         2.788721         1.305387
 H        -0.798785         3.332142         0.902932
 H        -1.419073         2.243741         2.304427
