19
Iteration:  3408
 O         0.568448         0.632275         0.605492
 C        -0.798342         0.960460         0.581078
 C        -1.761227        -0.126830         0.960572
 C        -2.794634         0.830712         0.064582
 C        -1.587224         1.066640        -0.949914
 O        -1.648795         2.405587        -1.589594
 C        -2.653792         3.053933        -0.763848
 C        -2.623652         2.294519         0.615936
 C        -1.202060         2.270734         1.125258
 H         1.145190         1.420038         0.594142
 H        -1.479029        -1.079054         0.428462
 H        -1.928534        -0.067479         2.057222
 H        -3.767540         0.453143        -0.202553
 H        -1.198218         0.276259        -1.531133
 H        -2.503421         4.219864        -0.834740
 H        -3.665400         2.815755        -1.195561
 H        -3.377620         2.546022         1.361807
 H        -0.548241         3.033375         0.581609
 H        -1.159334         2.390942         2.156249
