19
Iteration:  1775
 O         0.685666         0.621798         0.625831
 C        -0.674287         0.966392         0.578140
 C        -1.851420        -0.070590         0.907841
 C        -2.691929         0.891633        -0.012230
 C        -1.605083         1.037314        -0.938924
 O        -1.752812         2.279686        -1.562739
 C        -2.678640         3.114450        -0.716638
 C        -2.687075         2.298610         0.554693
 C        -1.216394         2.350265         1.102285
 H         0.821173         0.348370         1.557706
 H        -1.666486        -1.152336         0.520097
 H        -1.989148        -0.118778         1.959142
 H        -3.630498         0.493438        -0.324378
 H        -1.152014         0.265281        -1.556282
 H        -2.213008         4.061708        -0.721192
 H        -3.648326         3.197005        -1.255600
 H        -3.512855         2.510460         1.321058
 H        -0.507533         3.200544         0.816776
 H        -1.384900         2.533036         2.237725
