19
Iteration:  1542
 O         0.600595         0.764501         0.488575
 C        -0.737743         1.019302         0.456903
 C        -1.933336        -0.014130         0.939700
 C        -2.807621         0.845141         0.086284
 C        -1.533679         0.978875        -0.828669
 O        -1.607902         2.235542        -1.509441
 C        -2.504117         3.046304        -0.815100
 C        -2.691232         2.289470         0.541563
 C        -1.287785         2.260399         1.233352
 H         1.163740         0.985542         1.202350
 H        -1.680418        -0.958659         0.381571
 H        -1.959239        -0.395597         2.069156
 H        -3.732694         0.484943        -0.332044
 H        -1.359042         0.178574        -1.599338
 H        -2.053331         4.038383        -0.617709
 H        -3.432847         3.511729        -1.362149
 H        -3.534087         2.635479         1.086077
 H        -0.782570         3.189685         1.107079
 H        -1.382321         2.043096         2.298026
