19
Iteration:   353
 O         0.556656         0.455019         0.567468
 C        -0.719928         1.051904         0.629336
 C        -1.870617         0.028045         0.950481
 C        -2.738397         0.860307        -0.016889
 C        -1.511069         1.047095        -0.897254
 O        -1.559725         2.354864        -1.530648
 C        -2.791003         2.964527        -0.777142
 C        -2.701320         2.254904         0.554390
 C        -1.131839         2.492210         1.140735
 H         1.300693         0.973171         0.863982
 H        -1.716692        -0.978677         0.721068
 H        -2.267865        -0.057251         2.004284
 H        -3.648507         0.396713        -0.521995
 H        -1.201935         0.111785        -1.488401
 H        -2.545391         3.974508        -0.542784
 H        -3.664864         2.768554        -1.484184
 H        -3.550397         2.425794         1.311920
 H        -0.813658         3.302143         0.573330
 H        -1.084938         2.554300         2.242082
