19
Iteration:  4580charge 0 multiplicity 1
 O         0.635592         0.661669         0.605256
 C        -0.745908         0.968278         0.497363
 C        -1.863156        -0.023180         0.963854
 C        -2.780421         0.817099         0.059442
 C        -1.595563         1.051256        -0.893741
 O        -1.585550         2.317851        -1.514601
 C        -2.546979         3.009243        -0.743159
 C        -2.662688         2.290863         0.549832
 C        -1.347295         2.322583         1.137243
 H         1.106522         1.125728        -0.073612
 H        -1.873965        -1.050513         0.466056
 H        -2.265615        -0.104431         2.003205
 H        -3.886428         0.564028        -0.278370
 H        -1.378417         0.205310        -1.597239
 H        -1.950532         3.983441        -0.547754
 H        -3.459358         3.119860        -1.273241
 H        -3.492574         2.693204         1.242615
 H        -0.571748         3.181754         0.835413
 H        -1.336974         2.192100         2.200490
