19
Iteration:  3311charge 0 multiplicity 1
 O         0.678829         0.665748         0.560590
 C        -0.693654         0.921052         0.501270
 C        -1.883869        -0.129920         0.948923
 C        -2.740522         0.778216         0.066113
 C        -1.537717         1.029562        -0.873787
 O        -1.630729         2.350744        -1.520040
 C        -2.701369         3.104258        -0.764905
 C        -2.738249         2.307868         0.597671
 C        -1.232433         2.349343         1.132066
 H         1.083951         1.428127         0.089287
 H        -1.929563        -1.188232         0.558280
 H        -2.146275        -0.143870         2.030153
 H        -3.755389         0.536823        -0.170365
 H        -1.307081         0.340312        -1.711723
 H        -2.226785         4.135524        -0.582356
 H        -3.618043         3.008478        -1.358905
 H        -3.509569         2.585481         1.373662
 H        -0.591270         3.180926         0.837861
 H        -1.247409         2.342809         2.271877
