19
Iteration:  4157
 O         0.610347         0.582479         0.629284
 C        -0.762436         0.993712         0.588134
 C        -1.859349        -0.015661         0.939968
 C        -2.733578         0.802621         0.021818
 C        -1.515585         1.085297        -0.906727
 O        -1.671707         2.317521        -1.530915
 C        -2.612134         3.075821        -0.816689
 C        -2.676984         2.291890         0.563685
 C        -1.240584         2.275294         1.157971
 H         1.096436         1.197081         0.079798
 H        -1.634381        -1.058287         0.796518
 H        -1.966146         0.173184         2.052451
 H        -3.689775         0.407742        -0.304884
 H        -1.379296         0.420350        -1.719380
 H        -2.458861         4.123358        -0.394364
 H        -3.738764         3.089754        -1.333646
 H        -3.491729         2.520639         1.119320
 H        -0.710308         3.078891         0.655405
 H        -1.052376         2.352152         2.174087
