19
Iteration:   301charge 0 multiplicity 1
 O         0.685230         0.859032         0.564023
 C        -0.790399         0.949421         0.442773
 C        -1.904460        -0.032950         0.962669
 C        -2.841646         0.820345         0.072755
 C        -1.640082         1.015512        -0.938155
 O        -1.652396         2.187657        -1.644179
 C        -2.398952         3.110169        -0.773302
 C        -2.635955         2.328887         0.650583
 C        -1.315620         2.179739         1.235986
 H         0.871022         1.245546         1.415978
 H        -1.699142        -1.125904         0.729889
 H        -2.109871        -0.094841         1.992559
 H        -3.773353         0.368699        -0.242258
 H        -1.490756         0.107034        -1.473242
 H        -1.894444         4.158573        -0.876577
 H        -3.379105         3.327110        -1.297824
 H        -3.609823         2.560581         1.193878
 H        -0.753250         3.195376         0.974461
 H        -1.174732         1.876893         2.289251
