19
Iteration:  1187charge 0 multiplicity 1
 O         0.601085         0.795621         0.646022
 C        -0.802519         0.979009         0.505080
 C        -1.934347        -0.085940         0.955704
 C        -2.788637         0.838285        -0.009650
 C        -1.515960         1.051353        -0.952143
 O        -1.593225         2.306298        -1.575665
 C        -2.600799         3.052166        -0.741203
 C        -2.621432         2.292373         0.617702
 C        -1.235950         2.279854         1.186964
 H         0.942157        -0.058328         0.260892
 H        -1.609393        -1.073226         0.463485
 H        -2.244445        -0.188091         2.001590
 H        -3.712064         0.371172        -0.309643
 H        -1.398613         0.110877        -1.469614
 H        -2.095729         4.020671        -0.690321
 H        -3.503095         3.137803        -1.318809
 H        -3.525035         2.619114         1.228094
 H        -0.670487         3.229264         0.909836
 H        -1.127663         2.144382         2.324122
