19
Iteration:  2972
 O         0.626176         0.587887         0.667312
 C        -0.721245         1.041664         0.460145
 C        -1.829751        -0.011584         0.897113
 C        -2.736766         0.831707         0.004512
 C        -1.525087         1.048020        -0.935626
 O        -1.753874         2.310654        -1.414726
 C        -2.608264         3.053374        -0.714472
 C        -2.619159         2.257141         0.546183
 C        -1.236374         2.328359         1.144135
 H         1.176772         0.941825        -0.045555
 H        -1.638369        -0.975723         0.338456
 H        -2.149047        -0.117195         1.890579
 H        -3.722141         0.519207        -0.413120
 H        -1.428652         0.277458        -1.698264
 H        -2.420897         4.097713        -0.670630
 H        -3.651364         3.134950        -1.180356
 H        -3.568881         2.593351         1.115850
 H        -0.817638         3.236709         0.868898
 H        -1.229635         2.146560         2.213271
