19
Iteration:  4285charge 0 multiplicity 1
 O         0.622347         0.657943         0.589997
 C        -0.766873         1.018055         0.461982
 C        -1.919465        -0.091391         0.968473
 C        -2.743230         0.843477         0.089188
 C        -1.483509         1.027685        -0.876358
 O        -1.623751         2.290004        -1.541310
 C        -2.579794         3.088415        -0.766108
 C        -2.697929         2.297586         0.570297
 C        -1.249374         2.279391         1.167611
 H         1.203409         1.269943         0.049311
 H        -1.669776        -0.959185         0.406935
 H        -2.194357        -0.226538         2.008351
 H        -3.686713         0.609034        -0.402588
 H        -1.546861         0.217139        -1.507115
 H        -2.223637         4.081344        -0.763008
 H        -3.645632         3.027884        -1.116557
 H        -3.567574         2.642421         1.170623
 H        -0.671786         3.180729         0.931870
 H        -1.503055         2.246224         2.338588
