19
Iteration:  3768charge 0 multiplicity 1
 O         0.599101         0.664233         0.597009
 C        -0.747887         0.952939         0.462097
 C        -1.856605        -0.060184         0.894988
 C        -2.816068         0.800107         0.154851
 C        -1.536743         1.075768        -0.867362
 O        -1.614981         2.297260        -1.582890
 C        -2.573397         3.077633        -0.809102
 C        -2.674217         2.330365         0.568679
 C        -1.284570         2.263516         1.217335
 H         1.072462         1.417204         0.270012
 H        -1.648539        -1.080950         0.715647
 H        -2.068613        -0.074767         1.981945
 H        -3.792787         0.453171        -0.067581
 H        -1.188136         0.450771        -1.712515
 H        -2.305817         4.127817        -0.692182
 H        -3.511941         2.903810        -1.381693
 H        -3.471438         2.619647         1.249123
 H        -0.568440         3.074759         0.865571
 H        -1.205301         2.257473         2.360533
