19
Iteration:  1515
 O         0.606784         0.692573         0.601760
 C        -0.739018         0.943279         0.498654
 C        -1.853767        -0.035117         1.001684
 C        -2.766668         0.765503         0.005461
 C        -1.602829         1.072164        -0.862875
 O        -1.710715         2.282178        -1.648880
 C        -2.484318         3.141003        -0.810793
 C        -2.675727         2.279794         0.574991
 C        -1.256480         2.248186         1.239346
 H         1.168022         1.093828         1.248663
 H        -1.687826        -1.040818         0.607405
 H        -1.931301        -0.024004         2.016324
 H        -3.670524         0.239931        -0.433803
 H        -1.307964         0.356528        -1.611426
 H        -2.045874         4.222804        -0.765290
 H        -3.500246         3.402459        -1.253269
 H        -3.627019         2.577958         1.123325
 H        -0.709759         3.221131         0.984936
 H        -1.297253         2.190507         2.346385
