19
Iteration:  4950charge 0 multiplicity 1
 O         0.549263         0.566137         0.719673
 C        -0.749703         0.920908         0.464079
 C        -1.833415        -0.017880         0.917687
 C        -2.755516         0.813987         0.134384
 C        -1.498795         1.120137        -0.946535
 O        -1.695720         2.316674        -1.599793
 C        -2.619445         3.132369        -0.771272
 C        -2.718263         2.279426         0.559462
 C        -1.153544         2.306588         1.138680
 H         1.097678         1.315848         0.511071
 H        -1.595088        -0.908862         0.386179
 H        -2.145072        -0.094696         1.943502
 H        -3.713727         0.441300        -0.217669
 H        -1.235220         0.257216        -1.519201
 H        -2.150888         4.098167        -0.492190
 H        -3.599347         3.191210        -1.269599
 H        -3.592686         2.520448         1.233474
 H        -0.525239         3.052243         0.631664
 H        -1.072435         2.149982         2.192385
