19
Iteration:   178charge 0 multiplicity 1
 O         0.624156         0.531262         0.681844
 C        -0.701970         0.996284         0.449063
 C        -1.792022        -0.000935         0.900397
 C        -2.705282         0.814168        -0.037063
 C        -1.566049         1.057731        -0.925410
 O        -1.724888         2.298352        -1.554047
 C        -2.651848         3.055057        -0.748625
 C        -2.704553         2.349177         0.572328
 C        -1.237014         2.346530         1.157237
 H         0.746915         0.605072         1.626200
 H        -1.428506        -0.901890         0.657561
 H        -1.980732         0.141721         1.965206
 H        -3.814834         0.613604        -0.322172
 H        -1.203795         0.306061        -1.743384
 H        -2.283570         4.105172        -0.625129
 H        -3.661810         3.080583        -1.146322
 H        -3.597689         2.701129         1.182524
 H        -0.662420         3.205264         0.948538
 H        -1.013234         2.266089         2.262804
