19
Iteration:   992
 O         0.571745         0.593301         0.782864
 C        -0.822180         0.920422         0.490106
 C        -1.816740        -0.085562         0.942080
 C        -2.783941         0.807905         0.115335
 C        -1.538539         1.123831        -0.978808
 O        -1.550281         2.409175        -1.499776
 C        -2.733809         3.078664        -0.747845
 C        -2.683640         2.229583         0.486845
 C        -1.124881         2.333997         1.058960
 H         0.997824         0.894940        -0.081194
 H        -1.561735        -1.054859         0.529760
 H        -2.260168        -0.279659         2.018535
 H        -3.764530         0.675627        -0.351844
 H        -1.249404         0.393857        -1.712101
 H        -2.652198         4.145007        -0.805965
 H        -3.601407         2.862957        -1.326961
 H        -3.401846         2.419182         1.369318
 H        -0.620481         3.224342         0.522663
 H        -0.997697         2.590041         2.193582
