19
Iteration:  3301
 O         0.581397         0.661072         0.574156
 C        -0.769039         0.953348         0.474483
 C        -1.844731        -0.061483         1.000492
 C        -2.712665         0.800125         0.070143
 C        -1.506035         1.029210        -0.920953
 O        -1.640724         2.340558        -1.456058
 C        -2.749596         3.123926        -0.733269
 C        -2.610338         2.289504         0.524663
 C        -1.244513         2.249527         1.080731
 H         1.123757         1.327718         0.171905
 H        -1.617589        -1.028835         0.562172
 H        -2.044242        -0.180644         2.077450
 H        -3.719301         0.510360        -0.176910
 H        -0.944340         0.298264        -1.556574
 H        -2.446271         4.191936        -0.665552
 H        -3.682511         3.192060        -1.280200
 H        -3.408773         2.557229         1.290598
 H        -0.726344         3.139094         0.759164
 H        -1.159728         2.171792         2.248176
