19
Iteration:  3739
 O         0.578293         0.562637         0.621891
 C        -0.735486         0.959126         0.473949
 C        -1.804828        -0.011448         0.926676
 C        -2.708199         0.833295         0.030756
 C        -1.550905         1.020722        -0.888368
 O        -1.654243         2.291519        -1.456158
 C        -2.643240         3.067905        -0.792943
 C        -2.716560         2.303541         0.569804
 C        -1.242912         2.352424         1.159352
 H         1.155472         1.331971         0.370212
 H        -1.540555        -1.074447         0.716737
 H        -2.027181         0.165805         2.027226
 H        -3.648194         0.525401        -0.397134
 H        -1.412895         0.422925        -1.833092
 H        -2.399370         4.194901        -0.692511
 H        -3.608623         3.149635        -1.407162
 H        -3.609158         2.442405         1.251353
 H        -0.636783         3.148270         0.659829
 H        -1.048726         2.527987         2.181975
