19
Iteration:  4856charge 0 multiplicity 1
 O         0.639512         0.628336         0.576350
 C        -0.779191         0.986745         0.484930
 C        -1.893009        -0.029334         0.923014
 C        -2.833608         0.822695         0.126992
 C        -1.555175         1.014625        -0.812317
 O        -1.566542         2.316183        -1.533385
 C        -2.532581         3.072966        -0.769012
 C        -2.725286         2.310869         0.564539
 C        -1.284192         2.267601         1.129128
 H         0.989919         1.371198         0.036063
 H        -1.577274        -0.983464         0.524141
 H        -1.971902        -0.044873         2.026217
 H        -3.744194         0.485916        -0.379308
 H        -1.438531         0.253824        -1.556972
 H        -2.076026         4.047126        -0.502478
 H        -3.503113         3.176333        -1.383123
 H        -3.446221         2.795664         1.128166
 H        -0.702747         3.116176         0.760441
 H        -1.275677         2.128679         2.170554
