19
Iteration:    84
 O         0.608509         0.655871         0.459160
 C        -0.785635         0.965327         0.503695
 C        -1.840768         0.012183         0.993501
 C        -2.747295         0.779443         0.042349
 C        -1.539568         1.017072        -0.824969
 O        -1.590948         2.342085        -1.477106
 C        -2.594238         3.131719        -0.813406
 C        -2.677573         2.338615         0.488434
 C        -1.274926         2.200835         1.201344
 H         0.909557         0.764984         1.391984
 H        -1.808510        -1.076932         0.568132
 H        -2.034210         0.122567         2.057494
 H        -3.665069         0.402511        -0.363135
 H        -1.386426         0.216303        -1.511835
 H        -2.288956         4.185532        -0.614364
 H        -3.568186         3.004876        -1.495136
 H        -3.595904         2.607150         0.990529
 H        -0.720534         3.199353         1.149050
 H        -1.412474         2.083643         2.289028
