19
Iteration:  1337
 O         0.622961         0.700160         0.599310
 C        -0.762537         0.938248         0.573983
 C        -1.866948        -0.000674         0.961309
 C        -2.755410         0.767191         0.017620
 C        -1.486199         1.065301        -0.795298
 O        -1.670996         2.377529        -1.580970
 C        -2.605943         3.110745        -0.760320
 C        -2.698881         2.313667         0.485899
 C        -1.232047         2.226553         1.118520
 H         0.798221        -0.247802         0.883198
 H        -1.715274        -1.033632         0.619930
 H        -2.141922        -0.100706         1.923208
 H        -3.777935         0.487201        -0.262556
 H        -1.114849         0.339418        -1.624967
 H        -2.208165         4.160816        -0.825575
 H        -3.642833         3.257664        -1.260331
 H        -3.498481         2.523989         1.237143
 H        -0.696714         3.096994         0.846518
 H        -1.151634         2.048310         2.220903
