19
Iteration:  1006
 O         0.568306         0.584256         0.701123
 C        -0.728866         0.988286         0.577458
 C        -1.879813        -0.025042         0.958691
 C        -2.763113         0.754385         0.002876
 C        -1.535970         1.094499        -0.920920
 O        -1.585513         2.470774        -1.517244
 C        -2.699762         3.004432        -0.814253
 C        -2.662522         2.281842         0.560710
 C        -1.198664         2.302837         1.112494
 H         1.031062         0.507926        -0.114245
 H        -1.674049        -1.014050         0.585275
 H        -2.015574        -0.037288         2.121886
 H        -3.730383         0.226952        -0.157540
 H        -1.244197         0.415299        -1.727609
 H        -2.530029         4.078830        -0.612601
 H        -3.627050         2.931779        -1.368685
 H        -3.446307         2.681374         1.160874
 H        -0.596581         2.972870         0.602596
 H        -1.081956         2.364069         2.125287
