19
Iteration:  4168
 O         0.565313         0.575689         0.659594
 C        -0.723060         0.974148         0.464133
 C        -1.839610        -0.047199         1.009465
 C        -2.728530         0.799502         0.024158
 C        -1.541606         1.026654        -0.925977
 O        -1.652975         2.386279        -1.524939
 C        -2.665380         3.026965        -0.727487
 C        -2.678130         2.279979         0.523389
 C        -1.223848         2.374762         1.136474
 H         1.249311         1.076614         0.178224
 H        -1.647064        -1.061099         0.650437
 H        -2.053779        -0.022244         2.115785
 H        -3.689471         0.532415        -0.398553
 H        -1.232066         0.294821        -1.650001
 H        -2.189550         4.040103        -0.679150
 H        -3.676893         3.131722        -1.359489
 H        -3.391660         2.585880         1.200267
 H        -0.650779         3.228439         0.832343
 H        -1.331564         2.398287         2.183807
