19
Iteration:   595
 O         0.576084         0.841648         0.490441
 C        -0.781722         0.901784         0.542311
 C        -1.821396        -0.098271         1.011257
 C        -2.827082         0.836579         0.131912
 C        -1.686746         1.016628        -0.923880
 O        -1.502800         2.242919        -1.533738
 C        -2.497998         3.086380        -0.865124
 C        -2.635926         2.311004         0.514775
 C        -1.284063         2.206248         1.284740
 H         0.811964         1.780596         0.248407
 H        -1.957689        -1.076694         0.439008
 H        -2.097153        -0.025217         2.045637
 H        -3.761147         0.440925        -0.084952
 H        -1.546798         0.173311        -1.533792
 H        -2.030573         4.023077        -0.683872
 H        -3.367556         3.185787        -1.536958
 H        -3.554926         2.631980         1.176804
 H        -0.659613         3.105283         1.202462
 H        -1.398853         2.098705         2.339706
