19
Iteration:  4908charge 0 multiplicity 1
 O         0.621311         0.566441         0.582522
 C        -0.732648         1.002525         0.506500
 C        -1.898662        -0.037710         0.995070
 C        -2.767952         0.881775         0.041239
 C        -1.514902         1.056533        -0.855360
 O        -1.605409         2.304866        -1.575951
 C        -2.635454         3.085910        -0.781497
 C        -2.710345         2.304185         0.542186
 C        -1.237085         2.255187         1.209415
 H         1.111215         1.304293         0.200656
 H        -1.841264        -0.974748         0.552763
 H        -2.053983         0.002861         2.041139
 H        -3.767382         0.475303        -0.134906
 H        -1.259180         0.384505        -1.649989
 H        -2.352403         4.162981        -0.777766
 H        -3.516212         3.095379        -1.355401
 H        -3.509227         2.549864         1.283144
 H        -0.682002         3.231575         0.891662
 H        -1.232490         2.058439         2.227615
