19
Iteration:  1305charge 0 multiplicity 1
 O         0.574702         0.589381         0.681127
 C        -0.762358         0.957978         0.452745
 C        -1.823639         0.037463         0.920797
 C        -2.740634         0.817963        -0.016114
 C        -1.507398         1.029999        -0.828307
 O        -1.534811         2.402925        -1.470728
 C        -2.713477         3.042483        -0.786568
 C        -2.739593         2.255691         0.579191
 C        -1.204064         2.397099         1.104891
 H         0.622247        -0.238797         0.228522
 H        -1.528831        -0.975103         0.534342
 H        -2.056834         0.148979         1.902624
 H        -3.735954         0.427998        -0.247768
 H        -1.317836         0.259622        -1.669235
 H        -2.440660         4.128240        -0.955652
 H        -3.761894         2.709314        -1.211968
 H        -3.578924         2.515392         1.306088
 H        -0.766895         3.305291         0.830010
 H        -0.988287         2.204798         2.078159
