19
Iteration:  4043
 O         0.570286         0.557559         0.678155
 C        -0.743702         1.012916         0.520466
 C        -1.837213        -0.044062         0.939121
 C        -2.683137         0.821943         0.096835
 C        -1.524805         1.078679        -0.921303
 O        -1.707861         2.354696        -1.526392
 C        -2.619762         3.031413        -0.801594
 C        -2.639043         2.340193         0.570648
 C        -1.292051         2.313245         1.083609
 H         1.233364         1.129483         0.318687
 H        -1.960696        -1.060322         0.473782
 H        -1.771570        -0.151281         2.008309
 H        -3.588277         0.316163        -0.233252
 H        -1.343603         0.306011        -1.712017
 H        -2.254054         4.082755        -0.758635
 H        -3.621348         2.979723        -1.446252
 H        -3.462913         2.631092         1.311781
 H        -0.646670         3.061145         0.806976
 H        -1.125785         2.275138         2.227835
