19
Iteration:   506charge 0 multiplicity 1
 O         0.635247         0.561303         0.740019
 C        -0.729930         0.982813         0.497952
 C        -1.876475        -0.048151         0.962274
 C        -2.742944         0.839008        -0.012010
 C        -1.555880         1.039641        -0.908396
 O        -1.644447         2.396272        -1.520426
 C        -2.722715         2.994721        -0.782497
 C        -2.712162         2.342044         0.578933
 C        -1.095314         2.298140         1.063737
 H         1.239407         1.332435         0.687239
 H        -1.822374        -1.027943         0.437687
 H        -2.393448        -0.068370         1.975413
 H        -3.750975         0.659735        -0.368458
 H        -1.276672         0.297065        -1.693840
 H        -2.654040         4.016635        -0.970689
 H        -3.670927         2.707469        -1.195165
 H        -3.517350         2.626725         1.340520
 H        -0.710603         3.171931         0.624176
 H        -0.881881         2.399260         2.129736
