19
Iteration:  1737charge 0 multiplicity 1
 O         0.566249         0.709420         0.504360
 C        -0.780307         0.920265         0.499567
 C        -1.807902        -0.075797         0.965739
 C        -2.717634         0.801304         0.058220
 C        -1.534648         0.986865        -0.892836
 O        -1.616187         2.351279        -1.521954
 C        -2.646287         3.061817        -0.811487
 C        -2.644569         2.346431         0.573580
 C        -1.253231         2.298331         1.176680
 H         0.950707         0.859419         1.359634
 H        -1.870692        -1.076727         0.667117
 H        -2.022218         0.026553         2.070753
 H        -3.775474         0.538662        -0.260858
 H        -1.397984         0.272317        -1.717682
 H        -2.295675         4.114827        -0.640739
 H        -3.561862         3.074802        -1.277149
 H        -3.337786         2.563726         1.350162
 H        -0.624132         3.203147         0.920753
 H        -1.462921         2.200141         2.240183
