19
Iteration:  2993
 O         0.647793         0.608514         0.662692
 C        -0.700601         0.973700         0.524638
 C        -1.815788        -0.040120         0.919314
 C        -2.775335         0.822272         0.039529
 C        -1.540688         1.122031        -0.927085
 O        -1.647742         2.349117        -1.640808
 C        -2.709471         3.061701        -0.724286
 C        -2.731849         2.305302         0.637217
 C        -1.217128         2.277083         1.188953
 H         1.110076         0.706430        -0.173746
 H        -1.698078        -1.080366         0.461908
 H        -2.022126        -0.057327         1.982141
 H        -3.696522         0.364258        -0.381267
 H        -1.276963         0.321841        -1.581565
 H        -2.353748         4.094612        -0.609398
 H        -3.725650         3.208527        -1.207738
 H        -3.577711         2.459132         1.358334
 H        -0.531139         3.073754         0.907493
 H        -1.153204         2.144338         2.271017
