19
Iteration:  1140
 O         0.643664         0.527021         0.707820
 C        -0.671971         1.005074         0.473662
 C        -1.853585        -0.004763         0.928881
 C        -2.753333         0.801000         0.026275
 C        -1.526373         1.031922        -0.854324
 O        -1.581226         2.409782        -1.538025
 C        -2.722912         3.035991        -0.781694
 C        -2.738468         2.265108         0.574796
 C        -1.256394         2.448746         1.136434
 H         0.814497        -0.211032         0.075955
 H        -1.861086        -1.145349         0.524883
 H        -2.069133         0.158038         1.959012
 H        -3.634837         0.462004        -0.544062
 H        -1.115998         0.359741        -1.712065
 H        -2.591796         4.136318        -0.669905
 H        -3.605409         2.856367        -1.264034
 H        -3.644133         2.618407         1.186326
 H        -0.630323         3.215143         0.801663
 H        -1.193737         2.387996         2.159631
