19
Iteration:  3111
 O         0.576431         0.580872         0.650080
 C        -0.741105         1.032946         0.470564
 C        -1.811994        -0.007423         0.893378
 C        -2.748490         0.749567        -0.015009
 C        -1.514142         1.003993        -0.933645
 O        -1.692608         2.305442        -1.554181
 C        -2.715737         3.103165        -0.674684
 C        -2.698238         2.329456         0.664251
 C        -1.151769         2.321673         1.129145
 H         1.187844         1.371041         0.660337
 H        -1.490266        -0.951281         0.342799
 H        -2.128617        -0.169904         1.960367
 H        -3.729707         0.348208        -0.353487
 H        -1.229704         0.210000        -1.590846
 H        -2.303568         4.186073        -0.611329
 H        -3.635895         3.236624        -1.165280
 H        -3.503138         2.582196         1.301006
 H        -0.540449         3.153541         0.602117
 H        -1.010081         2.264794         2.187538
