19
Iteration:  1250charge 0 multiplicity 1
 O         0.595480         0.835516         0.652235
 C        -0.794299         0.964550         0.469228
 C        -1.889051        -0.000711         0.897585
 C        -2.804531         0.833612         0.006814
 C        -1.527508         1.061984        -0.879697
 O        -1.668128         2.196565        -1.566742
 C        -2.487634         3.068851        -0.743583
 C        -2.636680         2.256644         0.552012
 C        -1.280963         2.258174         1.247648
 H         0.933851         0.079246         0.130951
 H        -1.640185        -1.025187         0.405356
 H        -2.021869        -0.102889         1.932663
 H        -3.784807         0.444316        -0.332139
 H        -1.359971         0.228755        -1.665848
 H        -1.762665         3.902491        -0.534843
 H        -3.499214         3.478204        -1.050524
 H        -3.455549         2.835250         1.097471
 H        -0.746465         3.134225         1.092200
 H        -1.270655         2.018776         2.232375
