19
Iteration:  3737charge 0 multiplicity 1
 O         0.592862         0.552960         0.626256
 C        -0.739199         0.964842         0.478571
 C        -1.814814        -0.011977         0.905976
 C        -2.696199         0.814692         0.045321
 C        -1.561727         1.039062        -0.894132
 O        -1.659222         2.277703        -1.447992
 C        -2.634438         3.080303        -0.792310
 C        -2.727883         2.303659         0.582510
 C        -1.242369         2.348424         1.153924
 H         1.174390         1.330915         0.366015
 H        -1.570363        -1.053380         0.724008
 H        -2.038274         0.313245         1.976238
 H        -3.599705         0.585130        -0.374491
 H        -1.304135         0.439541        -1.812367
 H        -2.443428         4.204166        -0.736786
 H        -3.643649         3.134855        -1.422339
 H        -3.645832         2.441930         1.205941
 H        -0.659306         3.160899         0.633978
 H        -1.025144         2.490311         2.110762
