19
Iteration:  4517
 O         0.655446         0.598074         0.640943
 C        -0.753389         1.020345         0.483840
 C        -1.812216        -0.032104         0.985092
 C        -2.829575         0.847074        -0.029899
 C        -1.603069         1.057589        -0.865713
 O        -1.633446         2.284288        -1.575939
 C        -2.633389         3.081901        -0.769167
 C        -2.677339         2.290396         0.563469
 C        -1.209232         2.260155         1.179093
 H         1.193633         1.388824         0.759352
 H        -1.782739        -1.054451         0.542874
 H        -2.137837         0.215472         1.992881
 H        -3.776699         0.416273        -0.600577
 H        -1.318320         0.175876        -1.580030
 H        -2.216396         4.072105        -0.684722
 H        -3.633895         3.489031        -1.184279
 H        -3.557068         2.465798         1.236557
 H        -0.632257         3.105502         0.865098
 H        -1.086031         2.115174         2.324974
