19
Iteration:  2982
 O         0.701952         0.576385         0.683197
 C        -0.736794         1.048976         0.440993
 C        -1.869126         0.012447         0.867504
 C        -2.787094         0.810120         0.002006
 C        -1.550515         1.030967        -0.856827
 O        -1.698462         2.337502        -1.548032
 C        -2.686631         3.086835        -0.672296
 C        -2.634937         2.252918         0.550819
 C        -1.243592         2.299055         1.154009
 H         1.180776         0.751024        -0.107087
 H        -1.481599        -0.985408         0.465499
 H        -2.049474        -0.167810         1.921773
 H        -3.835593         0.608247        -0.308892
 H        -1.149693         0.325681        -1.522242
 H        -2.316217         4.127092        -0.541508
 H        -3.660641         2.885973        -1.216511
 H        -3.272698         2.661490         1.379190
 H        -0.836149         3.303916         0.979513
 H        -1.345932         2.188800         2.229714
