19
Iteration:   829charge 0 multiplicity 1
 O         0.527781         0.551992         0.772752
 C        -0.729503         0.997453         0.567269
 C        -1.822881        -0.044782         0.960650
 C        -2.616124         0.722101        -0.004798
 C        -1.542772         1.133489        -0.882883
 O        -1.694354         2.341955        -1.566149
 C        -2.719024         3.126441        -0.721498
 C        -2.688390         2.304290         0.484953
 C        -1.157965         2.377281         1.045826
 H         0.839249         0.216310        -0.051294
 H        -1.532395        -0.978408         0.494074
 H        -2.177034        -0.091351         2.074145
 H        -3.594168         0.394983        -0.468377
 H        -1.239658         0.382470        -1.665196
 H        -2.457180         4.232548        -0.708786
 H        -3.794949         3.044812        -1.243123
 H        -3.445235         2.517876         1.347769
 H        -0.428251         3.103250         0.730323
 H        -1.003012         2.299850         2.073141
