19
Iteration:  3317
 O         0.737684         0.662909         0.552650
 C        -0.717656         0.936558         0.515680
 C        -1.877305        -0.132341         0.927956
 C        -2.788733         0.811349         0.065839
 C        -1.565817         1.055447        -0.851730
 O        -1.641763         2.351767        -1.543356
 C        -2.611324         3.030503        -0.758120
 C        -2.779020         2.308553         0.616867
 C        -1.224647         2.362060         1.180533
 H         1.064115         1.418271         0.085926
 H        -1.869510        -1.153003         0.473039
 H        -2.146777        -0.060479         1.975319
 H        -3.708812         0.337204        -0.420273
 H        -1.609490         0.316036        -1.659705
 H        -2.351056         4.103514        -0.656122
 H        -3.571922         3.040428        -1.334565
 H        -3.556749         2.570612         1.301985
 H        -0.572516         3.175837         0.754124
 H        -1.246596         2.366773         2.245604
