19
Iteration:  4899
 O         0.591542         0.619729         0.557446
 C        -0.737492         0.986422         0.488661
 C        -1.871947        -0.011833         1.016130
 C        -2.858505         0.836657         0.056817
 C        -1.513512         1.035066        -0.831593
 O        -1.588894         2.351077        -1.560045
 C        -2.615922         3.077718        -0.808915
 C        -2.650139         2.306924         0.546617
 C        -1.262340         2.216135         1.177798
 H         1.227790         1.193811         0.141981
 H        -1.846894        -0.976888         0.569665
 H        -2.124040        -0.138460         2.082200
 H        -3.795442         0.520531        -0.456536
 H        -1.069328         0.231800        -1.398049
 H        -2.242714         4.088455        -0.620077
 H        -3.583896         2.935632        -1.238752
 H        -3.234029         2.674908         1.359609
 H        -0.662639         3.195782         0.913183
 H        -1.408754         2.192776         2.214700
