19
Iteration:  1895charge 0 multiplicity 1
 O         0.643013         0.629339         0.632537
 C        -0.758412         0.962827         0.526572
 C        -1.799523         0.000096         0.943137
 C        -2.760287         0.844274         0.085778
 C        -1.553462         0.981560        -0.917264
 O        -1.718466         2.355827        -1.618684
 C        -2.603409         3.103754        -0.759333
 C        -2.690170         2.301567         0.567860
 C        -1.256448         2.217990         1.183546
 H         1.082734         1.477214         0.706402
 H        -1.692621        -1.010567         0.402530
 H        -1.922209        -0.138384         1.996444
 H        -3.593585         0.457621        -0.446467
 H        -1.378314         0.144239        -1.633224
 H        -2.162504         4.068168        -0.707096
 H        -3.546771         3.225568        -1.309746
 H        -3.481723         2.559443         1.330100
 H        -0.681000         3.189014         0.837173
 H        -1.174539         2.135405         2.311981
