19
Iteration:  4351charge 0 multiplicity 1
 O         0.637712         0.535788         0.624071
 C        -0.715895         1.045296         0.493589
 C        -1.826899         0.018038         0.951714
 C        -2.814189         0.837039         0.011316
 C        -1.557737         1.073408        -0.904186
 O        -1.669364         2.308950        -1.501926
 C        -2.633691         3.052055        -0.752314
 C        -2.702926         2.269289         0.530488
 C        -1.245737         2.320396         1.180947
 H         1.290058         1.228516         0.643278
 H        -1.541037        -0.917303         0.533113
 H        -2.167862        -0.070640         1.965058
 H        -3.645499         0.374697        -0.478245
 H        -1.392335         0.339380        -1.606200
 H        -2.285934         4.043621        -0.648920
 H        -3.611016         2.926825        -1.426936
 H        -3.417963         2.549058         1.284343
 H        -0.655305         3.033300         0.660344
 H        -0.920895         2.404950         2.258245
