19
Iteration:  1900
 O         0.606055         0.618328         0.654526
 C        -0.741779         0.952035         0.532457
 C        -1.786833        -0.036935         0.947775
 C        -2.667553         0.838435         0.090465
 C        -1.582129         0.988494        -0.914233
 O        -1.727824         2.349369        -1.634350
 C        -2.605398         3.119136        -0.774466
 C        -2.696565         2.322359         0.588370
 C        -1.277138         2.263726         1.148819
 H         1.122127         1.489943         0.572989
 H        -1.803751        -0.948040         0.440956
 H        -1.979187        -0.306892         2.046436
 H        -3.573036         0.469586        -0.522139
 H        -1.286570         0.268906        -1.664342
 H        -2.125290         4.148905        -0.550758
 H        -3.640183         3.166798        -1.187327
 H        -3.488056         2.537366         1.287198
 H        -0.651810         3.038162         0.840180
 H        -1.156002         2.101038         2.256910
