19
Iteration:   374charge 0 multiplicity 1
 O         0.537163         0.454594         0.657841
 C        -0.764964         1.010160         0.497915
 C        -1.804292         0.037116         1.025046
 C        -2.691285         0.785190         0.038856
 C        -1.449098         1.073259        -0.873796
 O        -1.646531         2.425797        -1.481568
 C        -2.724937         3.025029        -0.843707
 C        -2.671881         2.354971         0.531717
 C        -1.234662         2.283229         1.053383
 H         1.129394         1.196044         0.396697
 H        -1.663016        -0.999321         0.993478
 H        -2.155340         0.149481         2.137377
 H        -3.708365         0.422472        -0.370988
 H        -0.986070         0.430636        -1.729204
 H        -2.663816         4.072901        -0.847242
 H        -3.599024         2.736486        -1.419425
 H        -3.389791         2.536725         1.370948
 H        -0.782050         3.096632         0.611761
 H        -1.154485         2.259324         2.160288
