19
Iteration:  1762
 O         0.635248         0.627405         0.644267
 C        -0.740759         1.008827         0.504464
 C        -1.792131         0.052244         0.864295
 C        -2.812167         0.785198         0.039678
 C        -1.522250         1.063838        -0.904764
 O        -1.722407         2.301807        -1.583804
 C        -2.609219         3.033392        -0.760749
 C        -2.681570         2.284843         0.621594
 C        -1.211300         2.313729         1.151422
 H         0.914455         0.453785         1.555194
 H        -1.611803        -0.921537         0.382516
 H        -2.160808        -0.120372         1.881459
 H        -3.719309         0.472732        -0.364261
 H        -1.492382         0.265845        -1.657877
 H        -2.258489         4.005517        -0.554884
 H        -3.544687         3.093764        -1.188596
 H        -3.418458         2.645926         1.315522
 H        -0.766398         3.211315         0.491801
 H        -0.930249         2.339792         2.250053
