19
Iteration:  1576
 O         0.547142         0.739367         0.419947
 C        -0.785148         0.917769         0.545092
 C        -1.927530        -0.040532         1.027325
 C        -2.750374         0.816041         0.063273
 C        -1.475009         1.013961        -0.877394
 O        -1.541770         2.350666        -1.467522
 C        -2.603890         3.028700        -0.782229
 C        -2.694735         2.326860         0.523707
 C        -1.270682         2.290085         1.149772
 H         1.015940         0.779563         1.272674
 H        -1.814542        -1.087159         0.581932
 H        -1.995184        -0.141447         2.170906
 H        -3.610425         0.624605        -0.452930
 H        -1.195811         0.155893        -1.516985
 H        -2.203219         4.014063        -0.736221
 H        -3.524542         2.909963        -1.436987
 H        -3.457665         2.587270         1.209961
 H        -0.800987         3.173049         0.913160
 H        -1.226391         2.132558         2.228293
