19
Iteration:  4183charge 0 multiplicity 1
 O         0.593787         0.539945         0.679795
 C        -0.784444         1.023730         0.492322
 C        -1.800024         0.053047         0.912656
 C        -2.744006         0.818334         0.052674
 C        -1.525654         1.065535        -0.881286
 O        -1.604792         2.285490        -1.541793
 C        -2.669309         3.126674        -0.772153
 C        -2.698730         2.307247         0.606991
 C        -1.256366         2.263637         1.066814
 H         1.159850         1.226786         0.322320
 H        -1.593792        -0.968249         0.485476
 H        -2.094581        -0.137090         1.962457
 H        -3.678746         0.306340        -0.204983
 H        -1.314916         0.243275        -1.681572
 H        -2.563989         4.219012        -0.631529
 H        -3.600826         2.859941        -1.227352
 H        -3.587582         2.489239         1.336761
 H        -0.741032         3.286827         0.830111
 H        -0.880862         2.184135         2.140302
