19
Iteration:  3092charge 0 multiplicity 1
 O         0.634182         0.590718         0.582298
 C        -0.723245         0.971540         0.461599
 C        -1.809703        -0.063218         0.931891
 C        -2.740105         0.902226         0.063925
 C        -1.552171         1.101482        -0.907372
 O        -1.721362         2.316282        -1.555009
 C        -2.591886         3.032255        -0.731996
 C        -2.648564         2.218330         0.581648
 C        -1.281727         2.333519         1.170253
 H         1.128344         1.436577         0.813932
 H        -1.851316        -1.123338         0.488043
 H        -2.019779        -0.087011         1.981988
 H        -3.725796         0.663078        -0.346953
 H        -1.325568         0.304446        -1.568446
 H        -2.303384         4.087464        -0.743808
 H        -3.673218         2.980913        -1.139386
 H        -3.400520         2.610432         1.274551
 H        -0.735131         3.319503         0.945033
 H        -1.343510         2.154691         2.288976
