19
Iteration:  1404
 O         0.608805         0.753849         0.584420
 C        -0.729067         0.912290         0.521675
 C        -1.892692        -0.081760         1.022350
 C        -2.743384         0.834690         0.010132
 C        -1.526207         0.998718        -0.852774
 O        -1.680882         2.285281        -1.576161
 C        -2.489703         3.130363        -0.779532
 C        -2.635039         2.347902         0.535341
 C        -1.362507         2.252839         1.229344
 H         1.020924         0.417273        -0.236923
 H        -1.599528        -1.074056         0.599179
 H        -2.246296        -0.204075         1.945729
 H        -3.658092         0.453511        -0.349141
 H        -1.176959         0.248665        -1.613287
 H        -2.099188         4.164696        -0.546777
 H        -3.523466         3.366951        -1.238904
 H        -3.614252         2.689520         0.994628
 H        -0.776818         3.128426         0.992147
 H        -1.444200         2.263101         2.360089
