19
Iteration:  3724
 O         0.652999         0.527299         0.647936
 C        -0.725943         1.018494         0.484238
 C        -1.845971         0.019959         0.993985
 C        -2.778935         0.793943        -0.008627
 C        -1.517391         1.081684        -0.893988
 O        -1.667254         2.363261        -1.529959
 C        -2.678211         3.062887        -0.737105
 C        -2.720904         2.285558         0.576333
 C        -1.217138         2.310591         1.065763
 H         1.253441         1.203078         0.359913
 H        -1.817368        -1.030269         0.715811
 H        -2.128879        -0.059430         2.093447
 H        -3.726661         0.308508        -0.231949
 H        -1.045684         0.227333        -1.380724
 H        -2.245715         4.060352        -0.737521
 H        -3.681755         2.869028        -1.269316
 H        -3.483687         2.649449         1.266621
 H        -0.768754         3.230348         0.667304
 H        -1.128793         2.231965         2.135531
