19
Iteration:   925
 O         0.622426         0.789206         0.429933
 C        -0.787247         0.985957         0.519885
 C        -1.840829         0.001943         0.962874
 C        -2.829986         0.840929        -0.023333
 C        -1.557826         1.061365        -0.832975
 O        -1.694608         2.179113        -1.551592
 C        -2.393174         3.110641        -0.764889
 C        -2.705816         2.281675         0.504389
 C        -1.310339         2.223315         1.292450
 H         0.957089         0.675894         1.322179
 H        -1.675366        -1.068890         0.558530
 H        -2.049326        -0.128645         2.082731
 H        -3.739418         0.324538        -0.257850
 H        -1.100475         0.282239        -1.481317
 H        -1.837381         4.020397        -0.563578
 H        -3.327072         3.307105        -1.226175
 H        -3.658343         2.626697         1.072827
 H        -0.699632         3.205422         1.363851
 H        -1.430785         2.013178         2.433041
