19
Iteration:  1338
 O         0.615887         0.705357         0.601320
 C        -0.752513         0.935833         0.568513
 C        -1.868962        -0.001103         0.960179
 C        -2.764844         0.758975         0.018745
 C        -1.484526         1.063346        -0.795389
 O        -1.671794         2.371197        -1.585672
 C        -2.609810         3.118089        -0.762369
 C        -2.689672         2.323263         0.486525
 C        -1.230501         2.220735         1.133553
 H         0.842688        -0.207778         0.886229
 H        -1.728384        -1.044763         0.620422
 H        -2.122251        -0.118951         1.917426
 H        -3.757549         0.490396        -0.301482
 H        -1.140985         0.333476        -1.606379
 H        -2.191077         4.172177        -0.800907
 H        -3.644251         3.282481        -1.275904
 H        -3.506249         2.515957         1.247020
 H        -0.716754         3.084209         0.845772
 H        -1.144847         2.065624         2.172152
