19
Iteration:  2490charge 0 multiplicity 1
 O         0.533327         0.648341         0.523888
 C        -0.752469         1.038301         0.467961
 C        -1.856893        -0.026303         1.007712
 C        -2.762659         0.791466         0.103617
 C        -1.456757         1.021151        -0.834407
 O        -1.622467         2.284941        -1.516057
 C        -2.615724         3.095087        -0.814641
 C        -2.648901         2.237823         0.543446
 C        -1.269703         2.323758         1.128663
 H         1.090744         1.439019         0.462933
 H        -1.634361        -0.928614         0.572702
 H        -1.984765        -0.112651         2.064131
 H        -3.766426         0.602866        -0.187650
 H        -1.218198         0.159329        -1.529794
 H        -2.332484         4.097065        -0.571374
 H        -3.649787         2.947831        -1.290814
 H        -3.550059         2.507304         1.207922
 H        -0.792118         3.294046         0.991677
 H        -1.194168         2.100329         2.196966
