19
Iteration:  1211charge 0 multiplicity 1
 O         0.637943         0.829953         0.558409
 C        -0.761509         0.952363         0.511522
 C        -1.842194        -0.045233         0.892850
 C        -2.844037         0.830685         0.020735
 C        -1.515616         1.013501        -0.814271
 O        -1.714407         2.248260        -1.590403
 C        -2.420100         3.138486        -0.757239
 C        -2.706570         2.314733         0.507500
 C        -1.324605         2.211422         1.268535
 H         1.048584        -0.060771         0.489622
 H        -1.703671        -1.014671         0.527109
 H        -2.023446        -0.008454         2.014804
 H        -3.728395         0.301071        -0.313166
 H        -1.298909         0.138127        -1.346695
 H        -1.860365         4.042524        -0.517552
 H        -3.263966         3.445384        -1.409592
 H        -3.549878         2.648711         1.081147
 H        -0.687993         3.184081         1.301245
 H        -1.550823         1.908427         2.396853
