19
Iteration:  3479charge 0 multiplicity 1
 O         0.619312         0.689349         0.562120
 C        -0.744147         0.934528         0.468392
 C        -1.842783        -0.139245         1.043489
 C        -2.742971         0.731229         0.062609
 C        -1.556475         1.040344        -0.802692
 O        -1.690357         2.345543        -1.569448
 C        -2.547342         3.138391        -0.787975
 C        -2.693964         2.333278         0.541646
 C        -1.278649         2.279417         1.160805
 H         0.973325         1.324779        -0.083418
 H        -1.602905        -1.101565         0.640786
 H        -1.987253         0.014602         2.066667
 H        -3.731754         0.663748        -0.431924
 H        -1.198368         0.322010        -1.616964
 H        -2.155229         4.113022        -0.575216
 H        -3.567733         3.255945        -1.353217
 H        -3.499777         2.612279         1.248385
 H        -0.759964         3.134938         0.974678
 H        -1.274116         2.100251         2.287515
