19
Iteration:  2625charge 0 multiplicity 1
 O         0.593016         0.724103         0.504228
 C        -0.766243         0.981526         0.482286
 C        -1.846153        -0.015402         1.001034
 C        -2.768697         0.873126         0.072136
 C        -1.515162         1.040488        -0.855753
 O        -1.611933         2.235235        -1.485231
 C        -2.519550         3.019940        -0.746174
 C        -2.691800         2.328232         0.578383
 C        -1.349034         2.232561         1.152248
 H         1.080718         1.562140         0.201315
 H        -1.759719        -1.042368         0.428183
 H        -2.143506        -0.159453         2.067328
 H        -3.778484         0.525476        -0.352795
 H        -1.238470         0.195071        -1.519382
 H        -2.215661         4.088123        -0.754558
 H        -3.518823         2.791561        -1.371546
 H        -3.557704         2.725589         1.095654
 H        -0.694321         2.908327         0.666640
 H        -1.205802         2.346453         2.303786
