19
Iteration:  4300charge 0 multiplicity 1
 O         0.628170         0.633875         0.631828
 C        -0.711861         0.947798         0.517900
 C        -1.879192         0.014478         0.892730
 C        -2.774135         0.841358         0.002452
 C        -1.602829         1.023102        -0.918352
 O        -1.597578         2.301576        -1.525226
 C        -2.664862         3.019326        -0.753755
 C        -2.673116         2.327277         0.584860
 C        -1.257922         2.332145         1.194655
 H         1.030759         1.159691        -0.079068
 H        -1.813434        -1.057351         0.561407
 H        -2.092439        -0.037814         1.999743
 H        -3.789783         0.456254        -0.212359
 H        -1.000163         0.299804        -1.562797
 H        -2.267194         4.026793        -0.536624
 H        -3.482606         2.908370        -1.366303
 H        -3.405697         2.636403         1.283337
 H        -0.698576         3.250402         0.993475
 H        -1.020173         2.141169         2.243524
