19
Iteration:  1257charge 0 multiplicity 1
 O         0.622807         0.819498         0.682766
 C        -0.740917         1.013869         0.472137
 C        -1.911824        -0.029196         0.917519
 C        -2.784074         0.809968         0.010135
 C        -1.559228         1.035255        -0.890818
 O        -1.661297         2.213409        -1.568069
 C        -2.523148         3.078196        -0.725037
 C        -2.695724         2.337362         0.564951
 C        -1.251889         2.185035         1.196597
 H         0.843588         0.114080         0.005587
 H        -1.727509        -0.905139         0.396891
 H        -2.173471        -0.140180         1.992015
 H        -3.736632         0.655203        -0.538942
 H        -1.233324         0.301110        -1.626352
 H        -1.938960         3.986186        -0.607315
 H        -3.428219         3.246483        -1.385837
 H        -3.357223         2.657807         1.324763
 H        -0.643125         3.118162         0.966838
 H        -1.205086         2.096684         2.370359
