19
Iteration:  4506
 O         0.575450         0.603044         0.638805
 C        -0.742151         0.929946         0.493654
 C        -1.849637        -0.032733         0.932614
 C        -2.714866         0.854713         0.031132
 C        -1.530615         1.094233        -0.871110
 O        -1.675712         2.300856        -1.523682
 C        -2.612800         3.093828        -0.753330
 C        -2.721304         2.300770         0.551232
 C        -1.222811         2.255344         1.088226
 H         1.090225         1.442814         0.777725
 H        -1.491179        -1.062655         0.778586
 H        -2.040059        -0.060847         2.013416
 H        -3.689177         0.515647        -0.505339
 H        -1.391247         0.218499        -1.601531
 H        -2.133335         4.036619        -0.568330
 H        -3.563001         3.034101        -1.368022
 H        -3.296539         2.805407         1.324067
 H        -0.749286         3.115028         0.691164
 H        -1.221168         2.351722         2.220165
