19
Iteration:   811charge 0 multiplicity 1
 O         0.641860         0.665096         0.790909
 C        -0.760477         0.955434         0.468359
 C        -1.874996        -0.034113         0.923742
 C        -2.786569         0.859262        -0.026883
 C        -1.489503         1.026921        -0.932436
 O        -1.715669         2.329854        -1.535218
 C        -2.669688         3.054560        -0.744842
 C        -2.631820         2.297976         0.589418
 C        -1.194051         2.271690         1.097989
 H         1.200606         0.614188         0.018631
 H        -1.772538        -1.038086         0.592236
 H        -2.102882        -0.036651         1.950276
 H        -3.811508         0.527250        -0.312398
 H        -1.264869         0.265773        -1.670499
 H        -2.222950         4.051851        -0.664154
 H        -3.548097         3.150632        -1.314057
 H        -3.389822         2.615966         1.205566
 H        -0.726783         3.150531         0.660845
 H        -1.111858         2.416667         2.220872
