19
Iteration:  4221
 O         0.591819         0.649168         0.580687
 C        -0.701793         0.956336         0.546996
 C        -1.922633        -0.043107         0.948520
 C        -2.738843         0.791056         0.051299
 C        -1.528358         1.022181        -0.896347
 O        -1.643986         2.292922        -1.580429
 C        -2.647062         3.132376        -0.747274
 C        -2.673310         2.360448         0.559037
 C        -1.233498         2.248451         1.166511
 H         1.188140         1.407541         0.672635
 H        -1.516200        -0.957896         0.563712
 H        -2.044333        -0.114375         2.039105
 H        -3.726992         0.444037        -0.248539
 H        -1.288224         0.271203        -1.588489
 H        -2.276398         4.128636        -0.867307
 H        -3.570836         3.144513        -1.288160
 H        -3.400362         2.604581         1.281616
 H        -0.664916         3.050027         0.819192
 H        -1.336626         2.149813         2.338657
