19
Iteration:  3764
 O         0.602904         0.642553         0.601103
 C        -0.772304         0.982238         0.496431
 C        -1.865217        -0.047695         0.912582
 C        -2.784996         0.777225         0.178436
 C        -1.570174         1.071915        -0.862062
 O        -1.596012         2.315631        -1.601516
 C        -2.579051         3.080244        -0.776235
 C        -2.669966         2.312450         0.558483
 C        -1.278120         2.256393         1.127763
 H         1.109865         1.449061         0.265695
 H        -1.645492        -1.123525         0.599644
 H        -2.046220        -0.093226         1.989314
 H        -3.883729         0.457795        -0.132752
 H        -0.985615         0.492300        -1.609754
 H        -2.439652         4.161012        -0.702247
 H        -3.509486         2.953172        -1.265522
 H        -3.474884         2.699747         1.194657
 H        -0.615090         3.100788         0.961713
 H        -1.198178         2.192234         2.353025
