19
Iteration:   170
 O         0.607578         0.567492         0.647170
 C        -0.694692         1.054482         0.434651
 C        -1.787345         0.042748         0.981298
 C        -2.782709         0.811288         0.020015
 C        -1.546188         1.071384        -0.938377
 O        -1.712444         2.307155        -1.611270
 C        -2.611936         3.087815        -0.741527
 C        -2.685294         2.277752         0.559699
 C        -1.247616         2.262350         1.155630
 H         0.865072         0.674269         1.565840
 H        -1.393564        -1.021700         0.659905
 H        -2.058652         0.024804         2.058506
 H        -3.816317         0.590359        -0.309119
 H        -1.233340         0.250152        -1.571458
 H        -2.126066         4.082673        -0.555408
 H        -3.506916         3.074982        -1.297571
 H        -3.525607         2.734475         1.178758
 H        -0.718054         3.259805         1.138321
 H        -1.355848         1.859616         2.163926
