19
Iteration:  3950
 O         0.628794         0.667764         0.567430
 C        -0.803827         1.001988         0.500438
 C        -1.813287        -0.034699         0.915810
 C        -2.784314         0.872237         0.022762
 C        -1.572877         1.016259        -0.847099
 O        -1.602671         2.225473        -1.598581
 C        -2.549220         3.091992        -0.743525
 C        -2.746124         2.316782         0.604633
 C        -1.275920         2.263125         1.221752
 H         1.122535         1.492768         0.268131
 H        -1.800085        -0.994205         0.410205
 H        -1.896395        -0.179826         2.015716
 H        -3.867740         0.546034        -0.196364
 H        -1.283282         0.152794        -1.425926
 H        -2.141025         4.137614        -0.665881
 H        -3.577317         3.026766        -1.321701
 H        -3.443727         2.721197         1.298947
 H        -0.450536         3.025360         1.029829
 H        -1.349433         2.260740         2.259546
