19
Iteration:  1078
 O         0.629067         0.952241         0.626321
 C        -0.793959         0.928229         0.505237
 C        -1.855800        -0.016777         0.878787
 C        -2.836158         0.844055         0.083177
 C        -1.628475         0.915003        -0.931254
 O        -1.627114         2.230461        -1.575794
 C        -2.415329         3.115625        -0.736991
 C        -2.704823         2.300156         0.581772
 C        -1.272826         2.198805         1.165189
 H         1.113388         0.122292         0.503266
 H        -2.001891        -0.947862         0.345759
 H        -2.187880        -0.228229         1.892370
 H        -3.733426         0.385553        -0.332979
 H        -1.344908        -0.024914        -1.402813
 H        -1.825981         4.018924        -0.458019
 H        -3.317968         3.627544        -1.348241
 H        -3.572149         2.565583         1.293584
 H        -0.521953         3.117127         1.109887
 H        -1.365770         1.849160         2.308626
