19
Iteration:  4700charge 0 multiplicity 1
 O         0.594258         0.660999         0.614888
 C        -0.777308         1.014231         0.439625
 C        -1.874283        -0.032345         0.941697
 C        -2.831415         0.795748         0.013112
 C        -1.536446         1.042951        -0.841156
 O        -1.668117         2.246382        -1.515088
 C        -2.503234         3.080670        -0.753441
 C        -2.617302         2.288683         0.537319
 C        -1.261654         2.263798         1.216779
 H         1.098354         1.370310         0.129951
 H        -1.631035        -0.914095         0.298651
 H        -1.970382        -0.101586         2.030855
 H        -3.928040         0.551161        -0.293402
 H        -1.355943         0.287474        -1.662699
 H        -1.950813         4.083391        -0.490422
 H        -3.524740         3.371562        -1.209326
 H        -3.488258         2.812126         1.108291
 H        -0.674847         3.192831         0.893416
 H        -1.389289         2.192747         2.228478
