19
Iteration:  1333charge 0 multiplicity 1
 O         0.648022         0.671264         0.597147
 C        -0.790302         0.953725         0.577026
 C        -1.860812        -0.009007         0.962633
 C        -2.726912         0.809727         0.010914
 C        -1.492998         1.065222        -0.830882
 O        -1.664843         2.389530        -1.555166
 C        -2.600200         3.089873        -0.765844
 C        -2.724772         2.271146         0.500401
 C        -1.243187         2.255036         1.088378
 H         0.618881        -0.268511         0.826547
 H        -1.658134        -1.013153         0.582768
 H        -2.245002        -0.021968         2.116313
 H        -3.783138         0.453442        -0.163197
 H        -1.074798         0.422310        -1.584872
 H        -2.273919         4.114158        -0.811385
 H        -3.584693         3.109440        -1.200805
 H        -3.472575         2.586831         1.190809
 H        -0.577642         3.161459         0.836478
 H        -1.222045         2.081387         2.293658
