19
Iteration:  2836
 O         0.597674         0.726313         0.705906
 C        -0.756905         0.955627         0.516065
 C        -1.833027        -0.124840         0.967158
 C        -2.731002         0.800471        -0.029698
 C        -1.597552         1.053381        -0.956347
 O        -1.677510         2.286556        -1.564106
 C        -2.653404         3.129793        -0.760838
 C        -2.656404         2.328496         0.610541
 C        -1.170205         2.343088         1.178229
 H         0.956473         0.095918         0.004782
 H        -1.591952        -1.065711         0.472074
 H        -1.844160        -0.118533         2.133147
 H        -3.661321         0.385032        -0.393079
 H        -1.380898         0.259191        -1.603251
 H        -2.540791         4.273288        -0.861529
 H        -3.653444         3.056195        -1.323968
 H        -3.423735         2.485531         1.295247
 H        -0.490571         3.164919         0.737045
 H        -1.127186         2.250980         2.250097
