19
Iteration:  4540charge 0 multiplicity 1
 O         0.564079         0.627301         0.595087
 C        -0.754197         0.969412         0.519139
 C        -1.858511        -0.053670         0.973647
 C        -2.719941         0.860688         0.088708
 C        -1.512956         1.090445        -0.950074
 O        -1.684853         2.270037        -1.589823
 C        -2.523229         3.040991        -0.760192
 C        -2.639454         2.325340         0.546081
 C        -1.305400         2.247597         1.207388
 H         1.052227         1.479489         0.400373
 H        -1.556824        -0.991144         0.477478
 H        -2.131023         0.083958         2.037473
 H        -3.705219         0.398042        -0.299428
 H        -1.336890         0.197456        -1.686912
 H        -2.215436         4.060979        -0.671868
 H        -3.577674         3.356668        -1.224357
 H        -3.343295         2.819972         1.207643
 H        -0.840472         3.170166         1.085255
 H        -1.463770         2.107229         2.365499
