19
Iteration:  2203charge 0 multiplicity 1
 O         0.655939         0.534109         0.651024
 C        -0.751274         1.038248         0.509186
 C        -1.791960        -0.098906         0.968031
 C        -2.738115         0.777013         0.001746
 C        -1.545158         1.082689        -0.889905
 O        -1.755793         2.259869        -1.575243
 C        -2.662012         3.081291        -0.762771
 C        -2.603968         2.394048         0.554945
 C        -1.301232         2.358548         1.144891
 H         1.221569         1.325352         0.504128
 H        -1.310104        -1.007659         0.659935
 H        -2.101559        -0.165275         2.091512
 H        -3.780681         0.448765        -0.281417
 H        -1.177051         0.378959        -1.620096
 H        -2.260885         4.107837        -0.792833
 H        -3.698991         3.104804        -1.061276
 H        -3.509803         2.724085         1.238049
 H        -0.635767         3.223169         0.824995
 H        -1.243494         2.370649         2.183459
