19
Iteration:   989charge 0 multiplicity 1
 O         0.573712         0.593696         0.790187
 C        -0.803749         0.918425         0.466895
 C        -1.825521        -0.102535         0.941100
 C        -2.775454         0.848017         0.082533
 C        -1.535869         1.092547        -0.943812
 O        -1.560297         2.397233        -1.494651
 C        -2.716751         3.063869        -0.727888
 C        -2.698445         2.255247         0.525107
 C        -1.144408         2.345817         1.020492
 H         1.000394         0.971450         0.032175
 H        -1.574927        -1.121677         0.477495
 H        -2.153443        -0.265123         1.897990
 H        -3.740584         0.635636        -0.365596
 H        -1.233141         0.384973        -1.765057
 H        -2.626702         4.156684        -0.883177
 H        -3.681541         2.915370        -1.369986
 H        -3.355642         2.422725         1.430601
 H        -0.619619         3.294442         0.509464
 H        -1.040733         2.510706         2.221081
