19
Iteration:   370charge 0 multiplicity 1
 O         0.531859         0.434541         0.634601
 C        -0.765838         1.012213         0.504975
 C        -1.847137         0.067448         1.044187
 C        -2.685763         0.765326         0.021041
 C        -1.446661         1.105252        -0.871248
 O        -1.638684         2.418678        -1.470455
 C        -2.719207         2.987653        -0.819414
 C        -2.666308         2.299888         0.507198
 C        -1.218813         2.332702         1.062024
 H         1.092206         1.213874         0.495964
 H        -1.594002        -1.037665         0.825818
 H        -2.143346         0.109718         2.137472
 H        -3.686163         0.477650        -0.307456
 H        -1.039754         0.527421        -1.706712
 H        -2.732748         4.104416        -0.926636
 H        -3.678355         2.742688        -1.303595
 H        -3.390509         2.540891         1.229833
 H        -0.547105         3.197203         0.656238
 H        -1.190568         2.438308         2.164711
