19
Iteration:  1534
 O         0.645028         0.716196         0.508644
 C        -0.740066         1.030450         0.464323
 C        -1.874940        -0.065648         0.962421
 C        -2.790604         0.885040         0.078245
 C        -1.482004         0.961207        -0.867976
 O        -1.648867         2.214411        -1.542576
 C        -2.538421         3.108614        -0.774182
 C        -2.704178         2.338308         0.537106
 C        -1.366303         2.241443         1.194569
 H         1.031571         1.108488         1.283718
 H        -1.609383        -1.020316         0.361644
 H        -2.090454        -0.099524         2.060286
 H        -3.716221         0.552160        -0.222780
 H        -1.361134         0.191193        -1.652474
 H        -1.924862         3.879517        -0.385072
 H        -3.400225         3.362916        -1.282650
 H        -3.536533         2.804178         1.100524
 H        -0.682982         3.065767         1.061536
 H        -1.505696         2.088557         2.348351
