19
Iteration:  1072charge 0 multiplicity 1
 O         0.572645         0.965719         0.627348
 C        -0.827293         0.935741         0.455461
 C        -1.851333        -0.082404         0.905118
 C        -2.779596         0.833341         0.042153
 C        -1.611256         0.923634        -0.890671
 O        -1.617391         2.210906        -1.585815
 C        -2.444803         3.148984        -0.718811
 C        -2.697199         2.347957         0.529113
 C        -1.250579         2.196962         1.231674
 H         0.927576         0.066093         0.334495
 H        -1.948927        -1.030229         0.325769
 H        -1.983317        -0.165032         2.052579
 H        -3.760444         0.395023        -0.221026
 H        -1.351278         0.002223        -1.453730
 H        -1.750655         3.938669        -0.431068
 H        -3.266873         3.522537        -1.199527
 H        -3.433421         2.571969         1.240043
 H        -0.668412         3.035384         1.061983
 H        -1.321428         2.017175         2.247935
