19
Iteration:  4315charge 0 multiplicity 1
 O         0.587986         0.594178         0.642478
 C        -0.802172         1.017759         0.491625
 C        -1.810041        -0.011647         0.987770
 C        -2.778093         0.813321         0.034793
 C        -1.515391         1.086210        -0.888063
 O        -1.635748         2.362176        -1.509916
 C        -2.614583         3.059916        -0.783496
 C        -2.713676         2.255969         0.542783
 C        -1.163030         2.245677         1.167894
 H         1.157025         1.083276         0.051293
 H        -1.516464        -1.028989         0.645721
 H        -2.092828        -0.017604         2.061840
 H        -3.711743         0.461871        -0.440610
 H        -1.503208         0.303715        -1.683268
 H        -2.433744         4.179298        -0.915035
 H        -3.725686         3.014288        -1.271879
 H        -3.643826         2.564787         1.184102
 H        -0.560044         3.060970         0.686515
 H        -1.254209         2.286430         2.202548
