19
Iteration:  2272
 O         0.675998         0.666580         0.557826
 C        -0.736497         1.019388         0.531965
 C        -1.819113        -0.043468         0.967254
 C        -2.799923         0.761947         0.066922
 C        -1.595663         1.071771        -0.875045
 O        -1.624992         2.239505        -1.548305
 C        -2.579728         3.104582        -0.790819
 C        -2.760366         2.326324         0.603846
 C        -1.281710         2.242867         1.203721
 H         1.134312         1.364158        -0.006804
 H        -1.546066        -1.079452         0.596696
 H        -2.174584        -0.074759         2.054998
 H        -3.714051         0.413735        -0.385917
 H        -1.196438         0.283675        -1.599423
 H        -2.255620         4.118389        -0.872371
 H        -3.562361         3.178266        -1.406877
 H        -3.573586         2.760815         1.258190
 H        -0.822467         3.081373         0.722478
 H        -1.044243         2.466670         2.271825
