19
Iteration:  4064
 O         0.612470         0.592147         0.619003
 C        -0.797704         1.011490         0.510428
 C        -1.825822         0.034246         0.985033
 C        -2.790619         0.802976        -0.018769
 C        -1.554637         1.005741        -0.923840
 O        -1.637933         2.292746        -1.587425
 C        -2.644405         3.094809        -0.706979
 C        -2.694875         2.266992         0.556490
 C        -1.212517         2.314915         1.202417
 H         1.223317         1.366428         0.429514
 H        -1.514767        -0.959515         0.601397
 H        -2.037075        -0.012226         2.055176
 H        -3.760176         0.527340        -0.403274
 H        -1.293226         0.116291        -1.562081
 H        -2.251169         4.113604        -0.598173
 H        -3.556874         3.124185        -1.485812
 H        -3.352755         2.749595         1.330826
 H        -0.621567         3.119458         0.799545
 H        -1.001639         2.135014         2.343695
