19
Iteration:   785
 O         0.606132         0.766854         0.626133
 C        -0.822723         0.957516         0.461456
 C        -1.835406        -0.099799         0.965065
 C        -2.823362         0.841372         0.078141
 C        -1.581265         0.985411        -0.921149
 O        -1.598243         2.277508        -1.562705
 C        -2.500005         3.091954        -0.790814
 C        -2.678268         2.343516         0.581110
 C        -1.260369         2.250935         1.255259
 H         1.056329         1.132807        -0.128565
 H        -1.762653        -1.029672         0.410836
 H        -1.909005        -0.224165         2.094362
 H        -3.758452         0.387874        -0.387551
 H        -1.360892         0.177884        -1.670870
 H        -2.112428         4.153736        -0.766321
 H        -3.444194         3.173621        -1.484678
 H        -3.616232         2.662879         1.183940
 H        -0.639756         3.128197         1.174012
 H        -1.376622         2.095421         2.290668
