19
Iteration:  2564charge 0 multiplicity 1
 O         0.607435         0.623977         0.673369
 C        -0.719615         1.055603         0.478204
 C        -1.830952        -0.091284         0.967561
 C        -2.759569         0.801979         0.066774
 C        -1.552343         1.079368        -0.891370
 O        -1.707056         2.251794        -1.635888
 C        -2.655128         3.098178        -0.764423
 C        -2.680162         2.250585         0.540282
 C        -1.198921         2.335939         1.203150
 H         1.356951         1.194358         0.327360
 H        -1.565490        -0.971900         0.447843
 H        -2.138501        -0.204966         2.051559
 H        -3.733047         0.559643        -0.298708
 H        -1.203324         0.288582        -1.527118
 H        -2.263659         4.166141        -0.680948
 H        -3.643728         3.253922        -1.221615
 H        -3.454235         2.587372         1.231696
 H        -0.504424         3.221183         0.906235
 H        -1.315624         2.340196         2.235621
