19
Iteration:  3607
 O         0.762999         0.575742         0.597113
 C        -0.770276         0.913780         0.506134
 C        -1.840402        -0.058911         0.912623
 C        -2.764712         0.878798         0.021570
 C        -1.502916         1.020279        -0.848180
 O        -1.646470         2.290794        -1.532917
 C        -2.667561         3.072242        -0.749874
 C        -2.769828         2.390378         0.583673
 C        -1.323796         2.336857         1.168187
 H         1.108385         1.380906         0.148923
 H        -1.667923        -1.072256         0.540397
 H        -2.107448        -0.243356         2.017096
 H        -3.653936         0.417172        -0.280461
 H        -1.355972         0.209253        -1.643648
 H        -2.215961         4.110228        -0.830036
 H        -3.634447         3.079173        -1.099611
 H        -3.556734         2.799693         1.298326
 H        -0.787527         3.276500         0.694070
 H        -1.131311         2.349055         2.274878
