19
Iteration:  4541
 O         0.558698         0.628229         0.593841
 C        -0.761149         0.975427         0.522029
 C        -1.842177        -0.063115         0.975087
 C        -2.727502         0.864352         0.086319
 C        -1.512776         1.097831        -0.940554
 O        -1.681433         2.266246        -1.589701
 C        -2.529859         3.038070        -0.765697
 C        -2.632505         2.328446         0.551148
 C        -1.309748         2.244769         1.202621
 H         1.050956         1.474702         0.381533
 H        -1.584082        -1.009352         0.482670
 H        -2.136892         0.081122         2.030360
 H        -3.658334         0.416777        -0.321108
 H        -1.354755         0.220603        -1.674823
 H        -2.189659         4.052288        -0.677159
 H        -3.554560         3.375910        -1.204925
 H        -3.348966         2.806119         1.184958
 H        -0.826367         3.147209         1.075793
 H        -1.460404         2.103555         2.357150
