19
Iteration:  1433
 O         0.557069         0.637947         0.608336
 C        -0.735260         0.970788         0.450874
 C        -1.861622         0.012377         0.957398
 C        -2.757563         0.886643        -0.022812
 C        -1.535735         1.053885        -0.836430
 O        -1.541824         2.326000        -1.496754
 C        -2.619750         3.008823        -0.813013
 C        -2.747496         2.276268         0.632519
 C        -1.241376         2.283241         1.178514
 H         1.093467         0.679840        -0.236599
 H        -1.485179        -1.039688         0.874788
 H        -2.359157        -0.013084         2.072348
 H        -3.727856         0.498568        -0.362953
 H        -1.118988         0.317422        -1.590356
 H        -2.386024         4.042083        -0.641929
 H        -3.518419         2.989266        -1.394728
 H        -3.680502         2.582338         1.093956
 H        -0.739857         3.179724         0.764467
 H        -1.149108         2.255296         2.349792
