19
Iteration:  3986
 O         0.565400         0.643397         0.560994
 C        -0.791281         0.970422         0.573155
 C        -1.802142        -0.044058         1.000691
 C        -2.781474         0.797032         0.011667
 C        -1.572153         1.049573        -0.873696
 O        -1.589165         2.299092        -1.561749
 C        -2.597697         3.117343        -0.750583
 C        -2.714615         2.335314         0.545280
 C        -1.235461         2.261728         1.136985
 H         1.148292         1.436833         0.438090
 H        -1.629547        -1.056472         0.687906
 H        -1.841790         0.096650         2.086341
 H        -3.724268         0.421873        -0.279999
 H        -1.278704         0.218316        -1.534149
 H        -2.199512         4.125243        -0.685032
 H        -3.604913         3.191684        -1.366150
 H        -3.601607         2.458742         1.199954
 H        -0.597637         2.979989         0.803465
 H        -1.170137         2.015190         2.212243
