19
Iteration:   999
 O         0.563918         0.591455         0.736307
 C        -0.783177         0.971571         0.562569
 C        -1.860305        -0.044035         0.970684
 C        -2.786355         0.733198         0.089711
 C        -1.541330         1.146123        -0.989062
 O        -1.554429         2.448112        -1.509605
 C        -2.738838         3.068511        -0.799653
 C        -2.644414         2.235152         0.503420
 C        -1.144897         2.299006         1.112106
 H         1.044386         0.651745        -0.098842
 H        -1.590481        -1.052791         0.512215
 H        -2.114342        -0.138039         1.955387
 H        -3.799960         0.459681        -0.227875
 H        -1.281481         0.324104        -1.713927
 H        -2.569581         4.149267        -0.539760
 H        -3.666614         2.728899        -1.415592
 H        -3.497128         2.579941         1.121158
 H        -0.530613         3.011495         0.446731
 H        -0.968314         2.560180         2.221111
