19
Iteration:  4838charge 0 multiplicity 1
 O         0.547208         0.619736         0.594711
 C        -0.759906         0.939730         0.517239
 C        -1.804091        -0.066798         1.037949
 C        -2.730596         0.834398        -0.008241
 C        -1.594746         1.027077        -0.961671
 O        -1.669600         2.294329        -1.532423
 C        -2.593040         3.151303        -0.795651
 C        -2.640506         2.321216         0.574830
 C        -1.216734         2.292649         1.230483
 H         1.190329         1.261169         0.263963
 H        -1.832370        -1.041087         0.466749
 H        -2.137238         0.013072         2.084843
 H        -3.710139         0.465648        -0.305394
 H        -1.115720         0.230654        -1.573053
 H        -2.193105         4.159363        -0.890503
 H        -3.514648         3.231861        -1.378065
 H        -3.564827         2.622827         1.152056
 H        -0.564224         3.097465         0.931179
 H        -1.341774         2.152610         2.388826
