19
Iteration:  2032
 O         0.656469         0.636311         0.675573
 C        -0.725061         0.962921         0.490856
 C        -1.774128        -0.123610         0.957988
 C        -2.730391         0.877294         0.068343
 C        -1.554601         1.034632        -0.926416
 O        -1.789974         2.310622        -1.649643
 C        -2.591477         3.134998        -0.833618
 C        -2.722902         2.321079         0.596756
 C        -1.241294         2.242536         1.199564
 H         0.955433         1.588296         0.687620
 H        -1.839134        -1.108466         0.570838
 H        -1.889329        -0.133354         2.087325
 H        -3.711591         0.498035        -0.267775
 H        -1.232187         0.198956        -1.561858
 H        -2.066207         4.100498        -0.733794
 H        -3.529283         3.391536        -1.313139
 H        -3.362016         2.496126         1.392801
 H        -0.746822         3.207173         0.956142
 H        -1.183359         2.025592         2.393695
