19
Iteration:  2155
 O         0.668340         0.698660         0.629251
 C        -0.669940         0.979499         0.505251
 C        -1.829980        -0.033228         0.911613
 C        -2.770579         0.784001         0.066785
 C        -1.599960         0.957198        -0.919639
 O        -1.740465         2.230342        -1.550235
 C        -2.554712         3.130033        -0.792738
 C        -2.727731         2.378770         0.595956
 C        -1.278313         2.278791         1.182586
 H         1.085206         1.494155         0.225807
 H        -1.877313        -1.130814         0.586540
 H        -1.958312        -0.016341         1.939552
 H        -3.528897         0.190586        -0.426527
 H        -1.369886         0.117366        -1.627949
 H        -1.970997         4.137585        -0.648081
 H        -3.494003         3.284372        -1.252966
 H        -3.502867         2.870289         1.153265
 H        -0.626356         3.179342         1.108894
 H        -1.246717         2.122037         2.354258
