19
Iteration:  1819charge 0 multiplicity 1
 O         0.620864         0.701568         0.461703
 C        -0.756131         1.020343         0.469177
 C        -1.836184         0.024154         0.988178
 C        -2.762879         0.833609         0.035502
 C        -1.557874         1.015428        -0.917695
 O        -1.563862         2.234332        -1.504306
 C        -2.643342         3.033077        -0.702466
 C        -2.662883         2.277093         0.569998
 C        -1.298739         2.348880         1.191440
 H         0.682430         0.283763         1.340180
 H        -1.590006        -0.998789         0.481165
 H        -2.120300        -0.078617         2.012534
 H        -3.795644         0.666373        -0.240910
 H        -1.468498         0.318998        -1.784866
 H        -2.322390         4.025456        -0.650522
 H        -3.486676         3.008887        -1.289744
 H        -3.594394         2.547580         1.193120
 H        -0.726301         3.323197         0.955884
 H        -1.083524         2.118473         2.321695
