19
Iteration:  1854
 O         0.561941         0.749225         0.374503
 C        -0.781152         0.881169         0.546809
 C        -1.854862        -0.049048         1.043655
 C        -2.780842         0.884755         0.009679
 C        -1.486965         1.060571        -0.830432
 O        -1.543975         2.277331        -1.510799
 C        -2.614737         3.104125        -0.787595
 C        -2.712737         2.261064         0.551341
 C        -1.266826         2.240551         1.212550
 H         1.001944         1.082427         1.162963
 H        -1.526488        -1.073728         0.660745
 H        -2.026278        -0.236419         2.120715
 H        -3.833470         0.471493        -0.246014
 H        -1.488980         0.248402        -1.581736
 H        -2.212074         4.100994        -0.607748
 H        -3.554253         3.067504        -1.292872
 H        -3.569932         2.679007         1.222262
 H        -0.682616         3.023705         0.664012
 H        -1.230771         2.431467         2.390335
