19
Iteration:   712charge 0 multiplicity 1
 O         0.561638         0.627957         0.709636
 C        -0.769861         0.934135         0.496588
 C        -1.826963        -0.085546         0.966564
 C        -2.759257         0.870080         0.050425
 C        -1.541952         1.021321        -0.862662
 O        -1.658911         2.336229        -1.542453
 C        -2.693125         3.107372        -0.830648
 C        -2.655615         2.317628         0.536948
 C        -1.164124         2.243149         1.089712
 H         1.016033         1.514438         0.720205
 H        -1.641302        -0.979265         0.389039
 H        -1.911167        -0.290458         2.027461
 H        -3.758323         0.583360        -0.408623
 H        -1.188266         0.409007        -1.689013
 H        -2.330778         4.112663        -0.611862
 H        -3.671907         3.202216        -1.214953
 H        -3.409792         2.606478         1.168369
 H        -0.559128         3.069301         0.644861
 H        -0.878437         2.259836         2.213790
