19
Iteration:  2838
 O         0.601571         0.725831         0.704100
 C        -0.753994         0.955584         0.507758
 C        -1.842365        -0.120076         0.952785
 C        -2.733717         0.800084        -0.011632
 C        -1.578599         1.054683        -0.972166
 O        -1.678559         2.288729        -1.563789
 C        -2.653221         3.127333        -0.769793
 C        -2.666136         2.313577         0.615562
 C        -1.160206         2.344403         1.190195
 H         0.928323         0.059838         0.040155
 H        -1.590318        -1.076613         0.495428
 H        -1.830699        -0.084593         2.125507
 H        -3.727271         0.410619        -0.321577
 H        -1.367993         0.222325        -1.581237
 H        -2.507335         4.273920        -0.858598
 H        -3.662477         3.083658        -1.330516
 H        -3.502141         2.502143         1.300122
 H        -0.553551         3.204395         0.759893
 H        -1.111585         2.288526         2.252788
