19
Iteration:  4498charge 0 multiplicity 1
 O         0.559772         0.591176         0.640506
 C        -0.771272         0.946991         0.497891
 C        -1.846696        -0.029816         0.953196
 C        -2.734713         0.791958         0.076916
 C        -1.464952         0.994176        -0.878692
 O        -1.679633         2.366456        -1.531240
 C        -2.589076         3.078701        -0.735062
 C        -2.666933         2.327729         0.566519
 C        -1.257638         2.326487         1.045758
 H         1.057053         1.440800         0.732669
 H        -1.816334        -0.997933         0.376186
 H        -2.072309        -0.196628         2.034883
 H        -3.737038         0.446966        -0.146208
 H        -1.174399         0.354492        -1.786760
 H        -2.438209         4.174025        -0.663538
 H        -3.516675         3.102594        -1.352917
 H        -3.536778         2.588514         1.153879
 H        -0.536399         3.052029         0.664780
 H        -1.152158         2.292048         2.197155
