19
Iteration:   732charge 0 multiplicity 1
 O         0.621033         0.673985         0.528682
 C        -0.779381         0.985655         0.452147
 C        -1.873849         0.000836         0.983214
 C        -2.766554         0.800703         0.062364
 C        -1.579164         1.022389        -0.921607
 O        -1.581383         2.285394        -1.519650
 C        -2.526174         3.062096        -0.723916
 C        -2.686479         2.308096         0.551809
 C        -1.317385         2.248822         1.190996
 H         1.114171         1.488523         0.584965
 H        -1.714811        -0.995173         0.816262
 H        -2.225656         0.289853         1.981824
 H        -3.765042         0.366074        -0.301818
 H        -1.290048         0.164827        -1.598504
 H        -2.116340         4.100617        -0.647258
 H        -3.395297         3.066339        -1.336192
 H        -3.567576         2.636103         1.132254
 H        -0.743069         3.155672         1.058168
 H        -1.395686         2.047244         2.295455
