19
Iteration:  3514charge 0 multiplicity 1
 O         0.584232         0.709997         0.576700
 C        -0.775411         1.012087         0.406238
 C        -1.823768        -0.070364         0.915507
 C        -2.833854         0.811043         0.073540
 C        -1.588959         1.046350        -0.853759
 O        -1.634649         2.274238        -1.570164
 C        -2.535988         3.023788        -0.779945
 C        -2.613546         2.290234         0.645889
 C        -1.258945         2.309223         1.219208
 H         1.163785         1.465577         0.435821
 H        -1.577294        -1.125322         0.585585
 H        -2.030027        -0.249382         1.955267
 H        -3.899913         0.597995        -0.322340
 H        -1.432892         0.249462        -1.528766
 H        -2.153957         4.000249        -0.628502
 H        -3.504740         3.112399        -1.355137
 H        -3.450412         2.638534         1.154755
 H        -0.814045         3.316815         1.099206
 H        -1.144081         1.993522         2.251484
