19
Iteration:  3459charge 0 multiplicity 1
 O         0.557061         0.610428         0.561867
 C        -0.741632         1.032208         0.515230
 C        -1.846172         0.014387         0.988889
 C        -2.751901         0.759458         0.016854
 C        -1.493140         1.076031        -0.905206
 O        -1.632254         2.311526        -1.571936
 C        -2.667843         3.060037        -0.695492
 C        -2.690915         2.245350         0.569513
 C        -1.203296         2.334724         1.196764
 H         1.124808         1.087917        -0.026088
 H        -1.653793        -1.034087         0.544768
 H        -2.212889        -0.091032         2.005478
 H        -3.754102         0.277484        -0.234355
 H        -1.213142         0.273056        -1.586484
 H        -2.284346         4.018610        -0.496055
 H        -3.566516         3.177981        -1.273413
 H        -3.495082         2.528180         1.205950
 H        -0.675574         3.242670         0.740009
 H        -1.143506         2.318041         2.317665
