19
Iteration:  3414
 O         0.589122         0.598709         0.609399
 C        -0.792644         0.928850         0.590201
 C        -1.787090        -0.043231         0.922442
 C        -2.762984         0.804541         0.132208
 C        -1.607128         1.103825        -0.930398
 O        -1.612401         2.408567        -1.599873
 C        -2.720320         3.078755        -0.789923
 C        -2.635802         2.265221         0.579149
 C        -1.180664         2.259222         1.116073
 H         0.884827         1.501528         0.571374
 H        -1.475039        -1.028714         0.505820
 H        -1.861779        -0.154359         2.000695
 H        -3.779368         0.333971        -0.061053
 H        -1.093632         0.331402        -1.599329
 H        -2.601699         4.091422        -0.761300
 H        -3.663184         2.916828        -1.304062
 H        -3.312657         2.606361         1.380384
 H        -0.460122         2.985320         0.661724
 H        -1.242473         2.350365         2.288201
