19
Iteration:   213charge 0 multiplicity 1
 O         0.647264         0.635293         0.607658
 C        -0.825076         0.929271         0.560902
 C        -1.897139        -0.090571         0.900258
 C        -2.760650         0.812908         0.028438
 C        -1.508227         1.065071        -0.831538
 O        -1.608544         2.427379        -1.489207
 C        -2.749916         2.960326        -0.787918
 C        -2.653248         2.373784         0.534833
 C        -1.121943         2.348680         1.043018
 H         0.735908         0.326006         1.503676
 H        -1.559152        -1.121714         0.703920
 H        -2.176017        -0.094254         1.948565
 H        -3.797509         0.536625        -0.351998
 H        -1.140935         0.430761        -1.657707
 H        -2.541229         4.072544        -0.572847
 H        -3.721934         2.845834        -1.196392
 H        -3.505648         2.637635         1.271116
 H        -0.584719         2.922993         0.248542
 H        -0.945709         2.471139         2.103270
