19
Iteration:  4897charge 0 multiplicity 1
 O         0.585564         0.632670         0.551620
 C        -0.759062         0.970538         0.493493
 C        -1.870281         0.000441         1.003195
 C        -2.858497         0.816763         0.068241
 C        -1.519859         1.032432        -0.839111
 O        -1.588096         2.359706        -1.543256
 C        -2.605756         3.062968        -0.809903
 C        -2.629578         2.306960         0.549651
 C        -1.272809         2.214626         1.164347
 H         1.220583         1.190879         0.117436
 H        -1.776507        -0.980233         0.664907
 H        -2.112100        -0.175975         2.013229
 H        -3.745142         0.549612        -0.540770
 H        -1.099153         0.179390        -1.342564
 H        -2.244582         4.092859        -0.614708
 H        -3.551073         2.967413        -1.215764
 H        -3.297367         2.783194         1.322261
 H        -0.609809         3.197277         0.979950
 H        -1.371253         2.276332         2.195826
