19
Iteration:  4632charge 0 multiplicity 1
 O         0.566854         0.493253         0.626557
 C        -0.712793         0.980772         0.496100
 C        -1.815422        -0.050536         0.945470
 C        -2.815360         0.895507         0.061049
 C        -1.453407         1.063609        -0.877718
 O        -1.599051         2.315255        -1.564598
 C        -2.680137         3.074217        -0.729563
 C        -2.702074         2.285191         0.555925
 C        -1.267252         2.367643         1.163050
 H         1.128318         1.263875         0.543614
 H        -1.599542        -0.979600         0.445891
 H        -1.975978        -0.022875         1.988742
 H        -3.576769         0.656020        -0.568172
 H        -1.464569         0.242716        -1.508093
 H        -2.374619         4.140050        -0.808745
 H        -3.716288         2.995766        -1.250604
 H        -3.531084         2.631456         1.230303
 H        -0.818771         3.254616         0.671940
 H        -1.013129         2.294988         2.170084
