19
Iteration:  3476
 O         0.605521         0.677425         0.563670
 C        -0.749363         0.975582         0.464053
 C        -1.871131        -0.154100         1.045564
 C        -2.730429         0.728440         0.085383
 C        -1.555835         1.039415        -0.799131
 O        -1.706151         2.378096        -1.565141
 C        -2.528793         3.111204        -0.806933
 C        -2.710424         2.292887         0.516982
 C        -1.246627         2.288837         1.159583
 H         0.957412         1.278804        -0.087423
 H        -1.593593        -1.049936         0.616566
 H        -1.973226         0.030187         2.148179
 H        -3.646192         0.686531        -0.446502
 H        -1.119914         0.337422        -1.607186
 H        -2.123289         4.181609        -0.538264
 H        -3.570706         3.199919        -1.321960
 H        -3.543911         2.570194         1.287113
 H        -0.665452         3.200461         1.012158
 H        -1.218919         2.102514         2.249160
