19
Iteration:  4515charge 0 multiplicity 1
 O         0.638371         0.597918         0.641244
 C        -0.750962         1.001857         0.487449
 C        -1.817638        -0.040733         0.978301
 C        -2.807463         0.858176        -0.023105
 C        -1.595839         1.080125        -0.871879
 O        -1.637262         2.277845        -1.559350
 C        -2.638359         3.077207        -0.771921
 C        -2.686883         2.289975         0.553962
 C        -1.208727         2.243562         1.167474
 H         1.192866         1.421668         0.775362
 H        -1.676723        -1.086737         0.585693
 H        -2.114423         0.217474         1.976679
 H        -3.716746         0.436977        -0.622599
 H        -1.372634         0.222964        -1.508579
 H        -2.158802         4.084688        -0.650326
 H        -3.633914         3.434144        -1.192095
 H        -3.514593         2.570627         1.331396
 H        -0.651032         3.197901         0.779116
 H        -1.116991         2.175626         2.244351
