19
Iteration:  2855
 O         0.650696         0.712109         0.647112
 C        -0.710050         1.033853         0.457621
 C        -1.827006         0.032442         0.923165
 C        -2.801164         0.845884         0.124468
 C        -1.515318         1.076406        -0.867082
 O        -1.692749         2.332357        -1.597456
 C        -2.604001         2.966319        -0.735799
 C        -2.676746         2.255900         0.553119
 C        -1.284623         2.258373         1.131545
 H         0.784391        -0.273853         0.454420
 H        -1.757979        -0.957547         0.409374
 H        -2.162939        -0.063352         1.905633
 H        -3.737230         0.424032        -0.227010
 H        -1.184174         0.366902        -1.696021
 H        -2.267704         3.963394        -0.455823
 H        -3.523432         3.184715        -1.220405
 H        -3.425032         2.669979         1.236943
 H        -0.673076         3.097571         0.781212
 H        -1.166964         2.074070         2.246952
