19
Iteration:  4745
 O         0.609827         0.585526         0.543526
 C        -0.747573         1.011978         0.525730
 C        -1.875286        -0.003249         0.970810
 C        -2.762329         0.836384         0.032477
 C        -1.600547         1.016208        -0.855260
 O        -1.546240         2.304029        -1.489954
 C        -2.632033         3.060476        -0.736781
 C        -2.705654         2.349992         0.505848
 C        -1.238252         2.278043         1.162847
 H         1.190641         1.241709         0.099294
 H        -1.744278        -0.988410         0.512332
 H        -2.192956         0.039926         2.048950
 H        -3.666006         0.541182        -0.643895
 H        -1.279298         0.183079        -1.563138
 H        -2.330019         4.177348        -0.598786
 H        -3.676951         2.922458        -1.201297
 H        -3.394422         2.695041         1.322355
 H        -0.579067         3.185970         1.052624
 H        -1.417416         1.985493         2.122626
