19
Iteration:  4964charge 0 multiplicity 1
 O         0.616491         0.587461         0.698268
 C        -0.764001         0.957529         0.514742
 C        -1.848286        -0.083204         0.929631
 C        -2.731882         0.863133        -0.008971
 C        -1.588528         1.018637        -0.906490
 O        -1.685534         2.354242        -1.566451
 C        -2.620429         3.073584        -0.753561
 C        -2.652316         2.344869         0.581339
 C        -1.231930         2.262637         1.132833
 H         1.227735         1.356819         0.509788
 H        -1.825996        -1.072362         0.582757
 H        -1.845094        -0.138945         2.032564
 H        -3.729809         0.513220        -0.405032
 H        -1.440452         0.320972        -1.739658
 H        -2.114484         4.071133        -0.612018
 H        -3.589954         3.057217        -1.295079
 H        -3.364923         2.795064         1.255491
 H        -0.676805         3.218997         0.793230
 H        -1.105908         2.376190         2.171039
