19
Iteration:  1362charge 0 multiplicity 1
 O         0.673683         0.847160         0.638306
 C        -0.809973         0.972458         0.507333
 C        -1.864132        -0.090748         0.883847
 C        -2.751244         0.871345         0.024439
 C        -1.612028         1.014029        -0.943155
 O        -1.683069         2.246505        -1.593607
 C        -2.446386         3.047590        -0.704701
 C        -2.686026         2.324581         0.570168
 C        -1.276941         2.261138         1.208851
 H         0.683565        -0.139224         0.857100
 H        -1.795204        -1.119085         0.512966
 H        -2.162597        -0.234031         1.928290
 H        -3.796391         0.691228        -0.157386
 H        -1.389520         0.256590        -1.651967
 H        -1.923694         4.027250        -0.763716
 H        -3.446803         3.263366        -1.215463
 H        -3.540290         2.654190         1.240774
 H        -0.639528         3.123787         1.068533
 H        -1.290700         2.000511         2.174506
