19
Iteration:  3512
 O         0.592865         0.714527         0.578571
 C        -0.763938         1.014804         0.405877
 C        -1.831766        -0.033894         0.900643
 C        -2.832162         0.813016         0.077458
 C        -1.608498         1.030038        -0.850419
 O        -1.632733         2.270134        -1.563770
 C        -2.520570         3.004826        -0.771387
 C        -2.633951         2.286150         0.638909
 C        -1.242404         2.311879         1.223136
 H         1.153001         1.453756         0.407437
 H        -1.612528        -1.018902         0.552489
 H        -2.012053        -0.278757         1.898232
 H        -3.876355         0.665209        -0.286454
 H        -1.413922         0.205238        -1.588264
 H        -2.175223         4.003649        -0.601037
 H        -3.507953         3.124032        -1.405165
 H        -3.529579         2.597787         1.163603
 H        -0.862618         3.241848         1.122657
 H        -1.140218         1.946111         2.282003
