19
Iteration:  4495
 O         0.562019         0.588629         0.643221
 C        -0.780827         0.958238         0.499258
 C        -1.843623        -0.045804         0.964408
 C        -2.747367         0.784828         0.085673
 C        -1.466691         0.981506        -0.893351
 O        -1.663157         2.377170        -1.533529
 C        -2.597544         3.081468        -0.738937
 C        -2.655894         2.332212         0.562478
 C        -1.247078         2.346618         1.050741
 H         1.080822         1.422921         0.712552
 H        -1.892144        -0.923001         0.299053
 H        -2.073729        -0.199627         2.017522
 H        -3.820919         0.386034        -0.105202
 H        -1.112475         0.352480        -1.768511
 H        -2.461151         4.133175        -0.673971
 H        -3.603642         3.120474        -1.295238
 H        -3.563275         2.493914         1.115361
 H        -0.558176         3.021967         0.685052
 H        -1.123462         2.285106         2.172121
