19
Iteration:  3283
 O         0.536148         0.579951         0.612633
 C        -0.709226         0.994175         0.438897
 C        -1.760509         0.031382         0.940217
 C        -2.742664         0.761114        -0.006341
 C        -1.587046         1.091588        -0.894192
 O        -1.648454         2.381807        -1.528586
 C        -2.627987         2.997088        -0.721710
 C        -2.744701         2.237592         0.633885
 C        -1.195944         2.338357         1.138396
 H         1.138270         1.262610         0.349900
 H        -1.577596        -1.007979         0.761867
 H        -1.902336         0.088478         2.031919
 H        -3.731350         0.394843        -0.423045
 H        -1.444688         0.291463        -1.706427
 H        -2.361222         4.010885        -0.580149
 H        -3.603588         2.860790        -1.281875
 H        -3.518637         2.633592         1.314153
 H        -0.583398         3.208927         0.847263
 H        -1.020131         2.268228         2.265529
