19
Iteration:  1513
 O         0.591678         0.687254         0.608356
 C        -0.727509         0.970553         0.498513
 C        -1.871882        -0.033714         1.008414
 C        -2.778416         0.757619         0.000819
 C        -1.594267         1.064387        -0.867244
 O        -1.716801         2.295178        -1.645783
 C        -2.502454         3.147936        -0.838022
 C        -2.659049         2.261602         0.578669
 C        -1.238445         2.246436         1.246105
 H         1.188671         1.119853         1.268213
 H        -1.638079        -1.044320         0.550568
 H        -1.927533        -0.002418         2.045620
 H        -3.613949         0.266242        -0.408079
 H        -1.345955         0.365836        -1.666269
 H        -2.003048         4.148485        -0.711575
 H        -3.458246         3.337326        -1.210714
 H        -3.601266         2.557014         1.090743
 H        -0.697306         3.166758         0.969284
 H        -1.257491         2.203568         2.410561
