19
Iteration:  4468charge 0 multiplicity 1
 O         0.586517         0.566170         0.653866
 C        -0.745586         0.966502         0.507574
 C        -1.811446         0.026736         0.914790
 C        -2.746066         0.836591         0.017076
 C        -1.532116         1.062391        -0.854708
 O        -1.646443         2.333002        -1.507262
 C        -2.619150         3.021171        -0.805561
 C        -2.686703         2.319644         0.618287
 C        -1.257043         2.291998         1.115230
 H         1.146163         1.264671         0.251392
 H        -1.637564        -0.956188         0.489301
 H        -2.142834         0.052030         1.963443
 H        -3.652095         0.549373        -0.388811
 H        -1.526912         0.350399        -1.635524
 H        -2.534211         4.165407        -0.659990
 H        -3.497586         2.797625        -1.444313
 H        -3.569366         2.609525         1.265353
 H        -0.470916         3.105093         0.770575
 H        -1.192931         2.188714         2.170889
