19
Iteration:  4175charge 0 multiplicity 1
 O         0.583283         0.540646         0.687480
 C        -0.751396         1.001933         0.414109
 C        -1.785955        -0.011252         1.025092
 C        -2.735150         0.804951         0.023495
 C        -1.536661         1.041851        -0.910480
 O        -1.627139         2.347974        -1.533822
 C        -2.663774         3.099798        -0.732461
 C        -2.684700         2.253905         0.561016
 C        -1.241950         2.385516         1.088158
 H         1.039050         1.207532         0.184642
 H        -1.732583        -0.957874         0.449943
 H        -2.297970        -0.141848         1.975270
 H        -3.731855         0.397585        -0.303359
 H        -1.168905         0.184009        -1.487886
 H        -2.428016         4.155699        -0.767556
 H        -3.615802         2.990807        -1.199483
 H        -3.486700         2.596130         1.332224
 H        -0.642406         3.233464         0.765940
 H        -1.250575         2.012932         2.242068
