19
Iteration:  3170charge 0 multiplicity 1
 O         0.562478         0.640121         0.501619
 C        -0.774634         1.018592         0.529833
 C        -1.809864        -0.022579         0.909992
 C        -2.736451         0.798811         0.052031
 C        -1.553441         1.106533        -0.847399
 O        -1.634660         2.342100        -1.508490
 C        -2.613892         2.981735        -0.762256
 C        -2.646062         2.254977         0.564208
 C        -1.274328         2.281042         1.215882
 H         1.103022         1.291643        -0.010981
 H        -1.489464        -1.044589         0.667623
 H        -2.126380        -0.070740         1.939786
 H        -3.727999         0.613265        -0.320649
 H        -1.398621         0.238210        -1.513467
 H        -2.188891         3.906482        -0.535792
 H        -3.602814         2.969502        -1.316455
 H        -3.466465         2.734548         1.200896
 H        -0.533621         3.081001         0.941492
 H        -1.326621         2.351223         2.383367
