19
Iteration:   981
 O         0.570953         0.592195         0.780774
 C        -0.736182         0.945313         0.464748
 C        -1.853632        -0.099239         0.891892
 C        -2.748260         0.869600        -0.010309
 C        -1.526109         1.030206        -0.888023
 O        -1.603324         2.379374        -1.472612
 C        -2.704606         3.041149        -0.754322
 C        -2.685887         2.328965         0.623303
 C        -1.211636         2.348925         0.979636
 H         1.188079         1.104249         0.243276
 H        -1.708622        -1.057249         0.387219
 H        -1.980883        -0.208449         2.024611
 H        -3.697678         0.467122        -0.359021
 H        -1.323953         0.330915        -1.685941
 H        -2.426977         4.093101        -0.722399
 H        -3.617174         2.892709        -1.282088
 H        -3.430504         2.606883         1.440366
 H        -0.613609         3.189809         0.530117
 H        -1.091613         2.274690         2.093625
