19
Iteration:   964charge 0 multiplicity 1
 O         0.622978         0.568774         0.672774
 C        -0.738471         0.994042         0.488158
 C        -1.826773         0.030903         0.878359
 C        -2.772041         0.826259         0.027344
 C        -1.542879         1.075104        -0.902573
 O        -1.690994         2.292561        -1.519042
 C        -2.617147         3.056178        -0.750895
 C        -2.691701         2.310039         0.503870
 C        -1.215019         2.250761         1.212205
 H         1.075034         1.416647         0.879627
 H        -1.622259        -0.954579         0.456786
 H        -2.169937        -0.049425         1.896929
 H        -3.711805         0.438920        -0.425645
 H        -1.286477         0.261445        -1.624353
 H        -2.274571         4.129823        -0.710519
 H        -3.640370         3.158403        -1.282335
 H        -3.449906         2.701906         1.114752
 H        -0.676426         3.078163         0.758609
 H        -1.122576         2.328431         2.275239
