19
Iteration:  2481
 O         0.594958         0.671768         0.526310
 C        -0.773557         1.021151         0.480930
 C        -1.825602        -0.000203         0.992527
 C        -2.762940         0.779036         0.054028
 C        -1.600337         0.998846        -0.783639
 O        -1.621628         2.317697        -1.600146
 C        -2.570437         3.045718        -0.825957
 C        -2.680459         2.242766         0.613795
 C        -1.264762         2.310945         1.202247
 H         1.160972         1.437942         0.393037
 H        -1.558314        -1.037806         0.613261
 H        -2.102387        -0.115597         2.021845
 H        -3.686503         0.497977        -0.440826
 H        -1.232388         0.203015        -1.510126
 H        -2.270543         4.044531        -0.682420
 H        -3.493265         3.086918        -1.396113
 H        -3.397725         2.725452         1.342738
 H        -0.779659         3.211734         0.953004
 H        -1.293225         2.149867         2.350718
