19
Iteration:   116
 O         0.555447         0.927606         0.317005
 C        -0.810860         0.939966         0.498086
 C        -1.969078        -0.033933         0.916208
 C        -2.826550         0.813269         0.114469
 C        -1.578328         0.965247        -0.813446
 O        -1.443930         2.212468        -1.450474
 C        -2.406915         3.029552        -0.755190
 C        -2.699817         2.286156         0.565902
 C        -1.324451         2.235473         1.255590
 H         0.991544         1.189656         1.123850
 H        -1.938800        -1.115286         0.387683
 H        -2.095338        -0.271855         2.014213
 H        -3.825029         0.474613        -0.158376
 H        -1.373620         0.092764        -1.424744
 H        -2.032596         4.083165        -0.616497
 H        -3.318256         3.300329        -1.490952
 H        -3.648085         2.725009         0.946707
 H        -0.702773         3.124291         0.884703
 H        -1.260307         2.147377         2.356844
