19
Iteration:  2451charge 0 multiplicity 1
 O         0.628036         0.745787         0.640201
 C        -0.740336         0.964437         0.426751
 C        -1.835427        -0.051737         0.972620
 C        -2.730710         0.838462         0.118009
 C        -1.545602         0.951588        -0.849217
 O        -1.758138         2.262872        -1.605440
 C        -2.551487         3.117511        -0.767743
 C        -2.633708         2.286258         0.543016
 C        -1.300223         2.271058         1.176684
 H         1.078636         1.415721         0.099388
 H        -1.735845        -1.056991         0.324466
 H        -2.002324        -0.185009         2.071299
 H        -3.759421         0.480333        -0.251582
 H        -1.208159         0.215125        -1.585360
 H        -2.073493         4.148231        -0.664938
 H        -3.447862         3.382765        -1.321495
 H        -3.363779         2.589170         1.260227
 H        -0.718285         3.187057         1.081530
 H        -1.456105         1.969387         2.263954
