19
Iteration:  4058charge 0 multiplicity 1
 O         0.570371         0.586024         0.650284
 C        -0.751135         0.979964         0.426925
 C        -1.822047        -0.041486         0.980912
 C        -2.768693         0.825611         0.057193
 C        -1.540689         1.057032        -0.876516
 O        -1.630146         2.299544        -1.603998
 C        -2.650252         3.079564        -0.726733
 C        -2.696491         2.263994         0.537930
 C        -1.174482         2.342401         1.170997
 H         1.148696         1.324104         0.388909
 H        -1.482353        -1.031487         0.638545
 H        -2.217937         0.028080         2.013326
 H        -3.814913         0.628956        -0.332315
 H        -1.263130         0.242943        -1.523176
 H        -2.302424         4.123688        -0.567084
 H        -3.587563         3.134502        -1.172522
 H        -3.494741         2.620496         1.202732
 H        -0.728695         3.345270         0.825568
 H        -1.269925         2.139946         2.209357
