19
Iteration:  3376
 O         0.684771         0.653262         0.574191
 C        -0.732679         0.993411         0.543495
 C        -1.794725         0.038247         0.927069
 C        -2.841816         0.836101         0.027141
 C        -1.538439         1.017800        -0.889219
 O        -1.720359         2.290761        -1.574462
 C        -2.590454         3.126462        -0.706095
 C        -2.724209         2.241300         0.565444
 C        -1.264039         2.222910         1.135747
 H         1.336321         1.375727         0.342190
 H        -1.737199        -1.021234         0.609277
 H        -1.994878        -0.075335         2.025860
 H        -3.802478         0.394523        -0.135889
 H        -1.163975         0.215387        -1.515456
 H        -2.012578         4.143602        -0.532178
 H        -3.545285         3.257359        -1.305490
 H        -3.443371         2.387815         1.390368
 H        -0.693881         3.118617         0.958955
 H        -1.355661         2.199774         2.192992
