19
Iteration:   302
 O         0.684905         0.854788         0.569518
 C        -0.786762         0.946004         0.437436
 C        -1.901813        -0.029816         0.966160
 C        -2.835161         0.817142         0.075356
 C        -1.645430         1.007025        -0.938925
 O        -1.647811         2.197865        -1.647230
 C        -2.411878         3.120799        -0.782158
 C        -2.638268         2.327532         0.652653
 C        -1.316093         2.179000         1.234811
 H         0.868116         1.245117         1.423369
 H        -1.669036        -1.155780         0.754459
 H        -2.130105        -0.117068         1.997165
 H        -3.766083         0.399399        -0.208039
 H        -1.507121         0.116925        -1.450487
 H        -1.897105         4.168577        -0.877326
 H        -3.365515         3.321419        -1.291772
 H        -3.592022         2.543235         1.191245
 H        -0.724030         3.183802         0.952728
 H        -1.199365         1.859700         2.271013
