19
Iteration:  1712charge 0 multiplicity 1
 O         0.698854         0.709975         0.349592
 C        -0.759351         1.026039         0.497349
 C        -1.979093        -0.014575         0.982284
 C        -2.830050         0.807667         0.060244
 C        -1.481726         1.033064        -0.746491
 O        -1.536979         2.275339        -1.496202
 C        -2.555670         3.014722        -0.782747
 C        -2.822686         2.283331         0.545316
 C        -1.211042         2.279358         1.199817
 H         1.056615         1.057502         1.171911
 H        -1.995479        -1.090308         0.564675
 H        -2.154833        -0.129992         2.043234
 H        -3.869135         0.583479        -0.407893
 H        -1.127431         0.347085        -1.510147
 H        -2.220054         4.086843        -0.564953
 H        -3.534107         3.090734        -1.389244
 H        -3.583741         2.536818         1.388640
 H        -0.857887         3.212761         0.996708
 H        -1.435092         2.201457         2.247085
