19
Iteration:  3423
 O         0.610324         0.569615         0.624037
 C        -0.700758         0.934865         0.482312
 C        -1.820882         0.000877         0.945727
 C        -2.743680         0.773036         0.147808
 C        -1.563662         1.126972        -0.876462
 O        -1.620251         2.387248        -1.538513
 C        -2.786262         3.054103        -0.813751
 C        -2.681796         2.289257         0.511982
 C        -1.156595         2.271109         1.133071
 H         1.073850         1.404889         0.516740
 H        -1.760594        -0.912273         0.434197
 H        -2.056548        -0.298112         1.971890
 H        -3.759925         0.412948        -0.056100
 H        -1.320638         0.378231        -1.756713
 H        -2.509742         4.075244        -0.571981
 H        -3.716738         2.959528        -1.473819
 H        -3.417269         2.734531         1.284353
 H        -0.619434         3.104777         0.897801
 H        -1.123224         2.242601         2.291045
