19
Iteration:  4917charge 0 multiplicity 1
 O         0.625787         0.539597         0.611540
 C        -0.773123         0.927532         0.516972
 C        -1.868052         0.007205         0.923044
 C        -2.671127         0.849693         0.062257
 C        -1.546046         1.076904        -0.945079
 O        -1.656837         2.293251        -1.534950
 C        -2.620126         3.076499        -0.783937
 C        -2.730368         2.329494         0.578132
 C        -1.237403         2.329764         1.212519
 H         1.105618         1.320661         0.315889
 H        -1.656603        -1.016205         0.709699
 H        -2.102557         0.004909         1.965758
 H        -3.646312         0.525507        -0.315032
 H        -1.485428         0.212412        -1.617953
 H        -2.228228         4.125605        -0.693406
 H        -3.559316         3.092721        -1.364845
 H        -3.753863         2.626584         0.943101
 H        -0.578628         3.201342         1.051420
 H        -1.057706         2.227224         2.288713
