19
Iteration:  2469charge 0 multiplicity 1
 O         0.660138         0.691916         0.544957
 C        -0.741521         1.001923         0.586081
 C        -1.794982        -0.040165         0.968279
 C        -2.821167         0.807657         0.048077
 C        -1.606012         1.064659        -0.964061
 O        -1.640753         2.238499        -1.604233
 C        -2.560723         3.038835        -0.762076
 C        -2.733403         2.365318         0.562413
 C        -1.263718         2.257764         1.268908
 H         1.065336         1.516855         0.255592
 H        -1.633600        -1.042826         0.638225
 H        -2.034928         0.010853         2.011770
 H        -3.714329         0.275307        -0.213283
 H        -1.381630         0.139003        -1.599378
 H        -2.072403         3.957566        -0.662409
 H        -3.571380         3.072788        -1.215126
 H        -3.660921         2.680312         1.164420
 H        -0.649633         3.083157         0.948692
 H        -1.213054         2.283761         2.398995
