19
Iteration:  3600charge 0 multiplicity 1
 O         0.715191         0.584349         0.617267
 C        -0.698700         0.940861         0.506799
 C        -1.847526        -0.092220         0.907804
 C        -2.780621         0.832267         0.044112
 C        -1.555359         1.074078        -0.802306
 O        -1.653693         2.310124        -1.528181
 C        -2.693834         3.066614        -0.771641
 C        -2.708398         2.375046         0.565662
 C        -1.256489         2.348787         1.118604
 H         1.244871         1.249392         0.190436
 H        -1.800911        -1.129870         0.536780
 H        -2.112444        -0.214446         1.914317
 H        -3.762779         0.366100        -0.352500
 H        -1.255877         0.290386        -1.505351
 H        -2.459207         4.098407        -0.662653
 H        -3.716262         3.145645        -1.376866
 H        -3.524973         2.744732         1.172732
 H        -0.616352         3.111937         0.843458
 H        -1.299917         2.295835         2.263536
