19
Iteration:   332
 O         0.597502         0.583577         0.584143
 C        -0.763237         0.957099         0.502357
 C        -1.854957        -0.017935         0.975250
 C        -2.765245         0.827609         0.059691
 C        -1.483232         1.105965        -0.851591
 O        -1.674479         2.283713        -1.515186
 C        -2.610941         3.066721        -0.807427
 C        -2.664026         2.331940         0.548412
 C        -1.265084         2.333478         1.098682
 H         1.082200         1.127782         1.259141
 H        -1.627255        -0.968726         0.520979
 H        -1.963901        -0.208887         2.044866
 H        -3.712160         0.379532        -0.352392
 H        -1.170101         0.254301        -1.510692
 H        -2.195832         4.097489        -0.810689
 H        -3.659845         2.889504        -1.291427
 H        -3.555894         2.708129         1.167777
 H        -0.652274         3.125750         0.631460
 H        -1.249896         2.276414         2.204666
