19
Iteration:  3933charge 0 multiplicity 1
 O         0.542646         0.686224         0.587161
 C        -0.783109         0.954636         0.534045
 C        -1.852372        -0.067453         0.965583
 C        -2.772772         0.783079         0.096808
 C        -1.536091         1.073922        -0.886437
 O        -1.675885         2.312760        -1.555747
 C        -2.575893         3.086437        -0.850945
 C        -2.601418         2.330572         0.527384
 C        -1.231934         2.239425         1.225693
 H         1.141210         1.386348         0.223366
 H        -1.510646        -1.075909         0.696151
 H        -2.096997        -0.115647         2.038962
 H        -3.642835         0.488239        -0.404642
 H        -1.389344         0.297137        -1.662657
 H        -2.110857         4.043237        -0.748313
 H        -3.545351         3.172334        -1.235873
 H        -3.477204         2.663580         1.142279
 H        -0.777529         3.268094         1.025471
 H        -1.035487         1.897403         2.351075
