19
Iteration:  2785
 O         0.598714         0.676064         0.567828
 C        -0.764787         1.001233         0.525373
 C        -1.803721         0.004368         0.959031
 C        -2.770530         0.815941         0.014057
 C        -1.553916         0.996779        -0.878320
 O        -1.601318         2.310187        -1.514160
 C        -2.590505         3.046368        -0.738211
 C        -2.684178         2.305537         0.549504
 C        -1.318140         2.280481         1.176832
 H         0.964193         0.755850        -0.363483
 H        -1.329325        -0.951065         0.770162
 H        -2.065163         0.035352         2.095987
 H        -3.771320         0.408865        -0.323721
 H        -1.355224         0.063521        -1.542310
 H        -2.144840         4.072482        -0.621456
 H        -3.575363         3.022549        -1.245676
 H        -3.510255         2.885754         1.128289
 H        -0.772761         3.231244         0.972447
 H        -1.383434         2.105528         2.248385
