19
Iteration:  2444
 O         0.605509         0.746007         0.655931
 C        -0.733919         1.033037         0.456158
 C        -1.804843        -0.088207         0.952301
 C        -2.764401         0.817260         0.085100
 C        -1.597076         1.016955        -0.833992
 O        -1.753114         2.273803        -1.615706
 C        -2.537960         3.078266        -0.800831
 C        -2.665299         2.331029         0.578169
 C        -1.252896         2.218718         1.139778
 H         1.153944         1.304223         0.131352
 H        -1.707310        -1.033631         0.572775
 H        -2.016440        -0.149143         2.027727
 H        -3.485994         0.275955        -0.536793
 H        -1.363598         0.137294        -1.403212
 H        -1.834121         3.922610        -0.537856
 H        -3.614111         3.337733        -1.224694
 H        -3.330249         2.582081         1.428680
 H        -0.644886         3.193597         1.087819
 H        -1.340832         2.046782         2.162543
