19
Iteration:  4146charge 0 multiplicity 1
 O         0.630473         0.606699         0.616385
 C        -0.755888         0.945220         0.530440
 C        -1.836922         0.022783         0.985535
 C        -2.751307         0.820677         0.013903
 C        -1.526390         1.078825        -0.850079
 O        -1.654769         2.308876        -1.581267
 C        -2.627666         3.118415        -0.752539
 C        -2.732242         2.260254         0.575053
 C        -1.230140         2.262905         1.163504
 H         1.023801         1.321736         0.050969
 H        -1.716822        -0.959302         0.544373
 H        -2.327711        -0.061266         1.977408
 H        -3.697971         0.398433        -0.323861
 H        -1.138847         0.275653        -1.427927
 H        -2.226551         4.184352        -0.882541
 H        -3.625694         2.981006        -1.389656
 H        -3.453202         2.576212         1.248713
 H        -0.648910         3.073987         0.726341
 H        -1.087810         2.265580         2.203478
