19
Iteration:    61
 O         0.627201         0.495674         0.610184
 C        -0.744349         1.028209         0.575521
 C        -1.890947        -0.043349         0.902106
 C        -2.757241         0.816233        -0.050657
 C        -1.446839         1.114350        -0.897889
 O        -1.683740         2.322400        -1.619871
 C        -2.668138         3.036175        -0.701289
 C        -2.685925         2.289966         0.676800
 C        -1.222240         2.401342         1.116027
 H         0.920292         0.554818         1.541246
 H        -1.583211        -0.969159         0.312135
 H        -2.090623        -0.233506         1.989595
 H        -3.699233         0.652396        -0.613800
 H        -1.123226         0.290874        -1.559601
 H        -2.229076         4.058506        -0.524525
 H        -3.652727         3.018782        -1.373783
 H        -3.516549         2.628995         1.317052
 H        -0.830400         3.368425         0.697075
 H        -1.117906         2.638963         2.191669
