19
Iteration:   274charge 0 multiplicity 1
 O         0.561419         0.809093         0.380961
 C        -0.817172         1.022214         0.591642
 C        -1.901725        -0.104711         0.981880
 C        -2.721219         0.820579         0.057094
 C        -1.511499         0.994468        -0.798688
 O        -1.695620         2.165045        -1.607455
 C        -2.420712         3.148116        -0.783519
 C        -2.640609         2.316816         0.546651
 C        -1.339223         2.272642         1.256804
 H         1.055153         1.064760         1.160358
 H        -1.501778        -0.944728         0.436160
 H        -2.358687        -0.301681         2.022490
 H        -3.729030         0.500925        -0.339830
 H        -1.187518         0.017988        -1.310242
 H        -1.772858         3.955248        -0.587873
 H        -3.230110         3.677947        -1.373209
 H        -3.563649         2.415041         1.066433
 H        -0.723158         3.114660         1.230554
 H        -1.435189         2.090819         2.358146
