19
Iteration:  4803
 O         0.610369         0.497756         0.694429
 C        -0.736474         1.017278         0.487979
 C        -1.826973        -0.008991         0.903218
 C        -2.714005         0.846177         0.038798
 C        -1.602442         1.056763        -0.973543
 O        -1.712236         2.281025        -1.523511
 C        -2.613884         3.112110        -0.786246
 C        -2.684855         2.328547         0.599174
 C        -1.217847         2.312500         1.170076
 H         1.216796         1.273103         0.636818
 H        -1.895268        -1.027250         0.535467
 H        -1.920006        -0.143772         1.993029
 H        -3.627753         0.560993        -0.428620
 H        -1.167259         0.447664        -1.726420
 H        -2.135770         4.058505        -0.752018
 H        -3.620380         3.139300        -1.262102
 H        -3.518043         2.609176         1.174094
 H        -0.618676         3.057019         0.801417
 H        -1.145580         2.402394         2.297378
