19
Iteration:  2759charge 0 multiplicity 1
 O         0.619909         0.687489         0.498476
 C        -0.762258         0.960006         0.541652
 C        -1.871717        -0.076133         1.037936
 C        -2.729577         0.817656         0.071268
 C        -1.536389         1.034862        -0.844935
 O        -1.582369         2.289217        -1.626195
 C        -2.610309         3.123963        -0.791158
 C        -2.755963         2.295551         0.599476
 C        -1.277776         2.286194         1.235653
 H         1.077352         1.368956        -0.070339
 H        -1.713679        -1.123165         0.627452
 H        -2.237944        -0.256910         2.117139
 H        -3.595663         0.420134        -0.397364
 H        -1.272834         0.184891        -1.362447
 H        -1.974454         4.057357        -0.721020
 H        -3.577724         3.157211        -1.389869
 H        -3.606853         2.643620         1.109458
 H        -0.773599         3.209972         0.889683
 H        -1.211657         2.222097         2.315923
