19
Iteration:  3691
 O         0.586404         0.619998         0.659586
 C        -0.757305         0.994320         0.477645
 C        -1.781690        -0.073663         0.980327
 C        -2.778299         0.821940         0.001554
 C        -1.582284         1.074213        -0.917810
 O        -1.664375         2.303994        -1.554584
 C        -2.618674         3.041796        -0.782600
 C        -2.667263         2.366901         0.591500
 C        -1.228322         2.283627         1.165926
 H         1.209893         1.288911         0.325717
 H        -1.706784        -1.049359         0.471531
 H        -2.089411        -0.112076         2.060256
 H        -3.713705         0.272069        -0.112904
 H        -1.117176         0.324874        -1.577566
 H        -2.366875         4.091689        -0.983877
 H        -3.703020         3.065153        -1.230498
 H        -3.396579         2.666908         1.332882
 H        -0.611122         3.128515         0.880487
 H        -1.109646         2.245412         2.230742
