19
Iteration:  3806charge 0 multiplicity 1
 O         0.606788         0.680550         0.573634
 C        -0.792177         0.991696         0.477472
 C        -1.867793        -0.039847         0.943906
 C        -2.824178         0.749995         0.088366
 C        -1.463879         1.087888        -0.895241
 O        -1.653348         2.281879        -1.561957
 C        -2.530998         3.087635        -0.784147
 C        -2.679640         2.270984         0.565921
 C        -1.281204         2.259449         1.226005
 H         1.165474         1.386895         0.191748
 H        -1.748770        -1.095580         0.529384
 H        -2.026178         0.056248         2.023269
 H        -3.879961         0.310855        -0.001964
 H        -1.276483         0.168660        -1.457437
 H        -2.044959         4.110870        -0.673031
 H        -3.480367         3.359812        -1.377006
 H        -3.451813         2.776216         1.209187
 H        -0.764890         3.142478         0.901135
 H        -1.284842         2.303024         2.272864
