19
Iteration:  2655
 O         0.605823         0.589972         0.636866
 C        -0.738009         1.004296         0.507179
 C        -1.830177         0.007988         1.016394
 C        -2.756084         0.742501         0.144094
 C        -1.540726         1.052635        -0.949132
 O        -1.669955         2.369954        -1.534763
 C        -2.625451         3.066211        -0.816041
 C        -2.664178         2.280263         0.507051
 C        -1.251704         2.310722         1.154229
 H         1.184076         1.138183         0.110149
 H        -1.630043        -0.868142         0.487933
 H        -2.165678        -0.175499         1.964929
 H        -3.793254         0.336953         0.020875
 H        -1.220942         0.304093        -1.785144
 H        -2.422266         4.089775        -0.748763
 H        -3.495028         3.022977        -1.491466
 H        -3.545899         2.626987         1.154638
 H        -0.574433         3.122745         0.883515
 H        -1.250065         2.284123         2.283319
