19
Iteration:  2381charge 0 multiplicity 1
 O         0.620015         0.573581         0.537306
 C        -0.711430         0.999024         0.551612
 C        -1.848455         0.026003         1.008725
 C        -2.752751         0.801127         0.067791
 C        -1.540865         0.992704        -0.942057
 O        -1.583512         2.413315        -1.481838
 C        -2.737942         2.994404        -0.840620
 C        -2.703371         2.294696         0.597808
 C        -1.234448         2.329361         1.125791
 H         1.264457         1.242372         0.740025
 H        -1.933567        -0.998519         0.536366
 H        -1.873766        -0.031304         2.116877
 H        -3.750488         0.469110        -0.115060
 H        -1.183829         0.316775        -1.797955
 H        -2.522536         4.019392        -0.987595
 H        -3.666050         2.803094        -1.254192
 H        -3.543098         2.438216         1.385867
 H        -0.701679         3.201941         0.692939
 H        -1.135560         2.318283         2.240075
