19
Iteration:  4960
 O         0.580501         0.585070         0.711352
 C        -0.739385         0.930047         0.468907
 C        -1.810321        -0.059384         0.938037
 C        -2.752814         0.870636         0.041131
 C        -1.550721         1.032287        -0.920629
 O        -1.697308         2.362928        -1.584229
 C        -2.616324         3.041076        -0.763391
 C        -2.692418         2.333408         0.575694
 C        -1.196193         2.277813         1.164739
 H         1.106610         1.349575         0.504946
 H        -1.858058        -1.079569         0.506288
 H        -2.087490        -0.189598         1.995677
 H        -3.617928         0.411537        -0.393616
 H        -1.406738         0.388609        -1.761802
 H        -2.187560         4.040188        -0.613289
 H        -3.524065         3.301239        -1.341956
 H        -3.414204         2.761390         1.321756
 H        -0.592777         3.077072         0.725896
 H        -1.069018         2.472650         2.245366
