19
Iteration:  1528charge 0 multiplicity 1
 O         0.672960         0.687217         0.521158
 C        -0.766690         0.975973         0.519490
 C        -1.810246        -0.073357         0.954729
 C        -2.753459         0.853465         0.072267
 C        -1.518071         1.016075        -0.898643
 O        -1.676561         2.217682        -1.594680
 C        -2.511236         3.132826        -0.713129
 C        -2.741616         2.372022         0.516608
 C        -1.376877         2.247857         1.188197
 H         0.846911         1.211264         1.348212
 H        -1.735642        -1.072776         0.594838
 H        -2.128741        -0.014539         2.005879
 H        -3.815813         0.527403        -0.295181
 H        -1.248518         0.148126        -1.514037
 H        -1.840725         4.056809        -0.486006
 H        -3.477729         3.212826        -1.363018
 H        -3.484557         2.788283         1.227544
 H        -0.677056         3.132245         1.030183
 H        -1.456159         2.048135         2.216739
