19
Iteration:  4327charge 0 multiplicity 1
 O         0.543521         0.550419         0.632515
 C        -0.713452         0.970133         0.465534
 C        -1.831932        -0.056534         1.027827
 C        -2.686118         0.793837         0.073053
 C        -1.516935         1.048500        -0.874335
 O        -1.628645         2.392837        -1.540156
 C        -2.702130         3.097443        -0.766718
 C        -2.663173         2.312470         0.521779
 C        -1.297104         2.325663         1.091794
 H         1.191477         1.171206         0.241716
 H        -1.701810        -1.037636         0.578763
 H        -2.106167        -0.143604         2.086766
 H        -3.560191         0.339354        -0.390908
 H        -1.210939         0.309407        -1.581731
 H        -2.331100         4.084554        -0.463820
 H        -3.669712         3.042753        -1.466720
 H        -3.342131         2.655426         1.381221
 H        -0.718541         3.223924         0.809777
 H        -1.077448         2.180901         2.135559
