19
Iteration:   917charge 0 multiplicity 1
 O         0.644632         0.832814         0.432055
 C        -0.776534         1.034583         0.538586
 C        -1.869619        -0.008604         0.914683
 C        -2.855892         0.815136        -0.022153
 C        -1.580784         0.978252        -0.823572
 O        -1.640153         2.167183        -1.526666
 C        -2.403203         3.104113        -0.747749
 C        -2.718509         2.280137         0.573672
 C        -1.314666         2.257813         1.251419
 H         1.034696         0.487480         1.222903
 H        -1.740050        -0.947032         0.395696
 H        -1.924296        -0.107957         2.109133
 H        -3.894389         0.628874        -0.445394
 H        -1.253307         0.105378        -1.384031
 H        -1.818067         4.030045        -0.508175
 H        -3.243416         3.477458        -1.399183
 H        -3.625794         2.549210         1.200162
 H        -0.771978         3.153869         1.153567
 H        -1.420979         1.906779         2.214629
