19
Iteration:  1833charge 0 multiplicity 1
 O         0.621555         0.725533         0.401017
 C        -0.748057         1.001282         0.466397
 C        -1.907883        -0.070139         0.976444
 C        -2.784024         0.772362         0.105705
 C        -1.526842         0.957684        -0.827463
 O        -1.590226         2.348589        -1.437927
 C        -2.548228         3.061860        -0.813141
 C        -2.733338         2.325487         0.563102
 C        -1.269212         2.347413         1.143480
 H         1.047949         0.438256         1.214432
 H        -1.682030        -1.033809         0.507845
 H        -2.119526        -0.246209         2.057477
 H        -3.673465         0.184333        -0.315212
 H        -1.232976         0.094090        -1.442096
 H        -2.170003         4.112660        -0.648581
 H        -3.571757         3.094309        -1.305113
 H        -3.479106         2.766430         1.293589
 H        -0.803740         3.214533         0.900197
 H        -1.418436         2.263173         2.219297
