19
Iteration:  4422charge 0 multiplicity 1
 O         0.554333         0.650700         0.596615
 C        -0.765651         1.012492         0.509047
 C        -1.847047        -0.024107         0.965659
 C        -2.736727         0.823875         0.026640
 C        -1.525170         1.008254        -0.878172
 O        -1.656746         2.291158        -1.546266
 C        -2.540454         3.067740        -0.710924
 C        -2.694314         2.293047         0.562119
 C        -1.285247         2.249788         1.187229
 H         0.987152         1.277026         0.022759
 H        -1.696458        -0.987131         0.394783
 H        -1.947240        -0.067027         2.084413
 H        -3.705132         0.418033        -0.344782
 H        -1.053905         0.286805        -1.675749
 H        -1.947336         4.095115        -0.761583
 H        -3.461013         3.220157        -1.298688
 H        -3.561541         2.794253         1.031104
 H        -0.850222         3.212858         0.731922
 H        -1.209856         2.318422         2.351605
