19
Iteration:  1028
 O         0.635241         0.616027         0.612193
 C        -0.704671         1.024830         0.491026
 C        -1.890275         0.012157         0.960035
 C        -2.727258         0.879089         0.007653
 C        -1.445084         1.078367        -0.906281
 O        -1.605066         2.209926        -1.502710
 C        -2.698338         3.133371        -0.732696
 C        -2.704972         2.284242         0.524622
 C        -1.318045         2.294265         1.224719
 H         1.034475         0.244375        -0.230154
 H        -1.698278        -0.999829         0.606394
 H        -2.109027         0.062852         2.122155
 H        -3.655828         0.674753        -0.588001
 H        -1.358030         0.172172        -1.515915
 H        -2.354000         4.157334        -0.589315
 H        -3.563123         3.117819        -1.349163
 H        -3.630093         2.475020         1.007385
 H        -0.755384         3.127182         1.014333
 H        -1.340362         2.096939         2.221886
