19
Iteration:   309
 O         0.653771         0.814310         0.598043
 C        -0.757467         0.940592         0.426796
 C        -1.863038        -0.056091         0.992073
 C        -2.768026         0.812248         0.096221
 C        -1.663664         0.956502        -0.908194
 O        -1.627648         2.265013        -1.652032
 C        -2.496517         3.174347        -0.826840
 C        -2.677523         2.307131         0.594161
 C        -1.273214         2.193288         1.210215
 H         0.851302         1.232366         1.438481
 H        -1.644309        -1.022904         0.706210
 H        -2.191634        -0.072616         2.071492
 H        -3.878641         0.588375        -0.095442
 H        -1.513246         0.039140        -1.626599
 H        -1.920607         4.074520        -0.668004
 H        -3.527385         3.269655        -1.337721
 H        -3.501521         2.653452         1.306337
 H        -0.547539         2.941380         1.022089
 H        -1.363011         1.911318         2.294655
