19
Iteration:  1146charge 0 multiplicity 1
 O         0.633372         0.540924         0.712836
 C        -0.680354         0.890428         0.477885
 C        -1.857064        -0.006619         0.919495
 C        -2.716638         0.805364         0.024597
 C        -1.484689         1.014811        -0.874547
 O        -1.574059         2.415700        -1.518223
 C        -2.714289         3.056053        -0.782758
 C        -2.797462         2.300938         0.589725
 C        -1.241603         2.457712         1.078830
 H         0.986790        -0.110127         0.131196
 H        -1.689513        -0.956098         0.623388
 H        -2.196241         0.073639         2.025263
 H        -3.687720         0.514782        -0.394672
 H        -1.382282         0.449225        -1.757430
 H        -2.702836         4.140552        -0.672480
 H        -3.758741         2.867318        -1.400262
 H        -3.499174         2.531445         1.372108
 H        -0.626938         3.400698         0.771103
 H        -1.294348         2.378853         2.268904
