19
Iteration:  1603charge 0 multiplicity 1
 O         0.678108         0.575892         0.550490
 C        -0.721868         0.972021         0.534423
 C        -1.833090         0.019326         0.950802
 C        -2.802684         0.783201         0.026644
 C        -1.544933         1.041541        -0.927213
 O        -1.589969         2.351681        -1.498966
 C        -2.667757         3.046023        -0.765872
 C        -2.754378         2.326077         0.544492
 C        -1.282235         2.312648         1.146622
 H         0.981618         0.533794         1.462709
 H        -1.479595        -1.030143         0.631597
 H        -1.960223         0.182912         1.998123
 H        -3.844866         0.505284        -0.494871
 H        -1.297475         0.203598        -1.601198
 H        -2.251265         4.099575        -0.669816
 H        -3.561634         3.059847        -1.320769
 H        -3.564058         2.686116         1.286615
 H        -0.850563         3.366463         0.766244
 H        -1.111988         2.356691         2.266185
