19
Iteration:  3262
 O         0.732997         0.495835         0.601359
 C        -0.739920         1.029294         0.494226
 C        -1.841621        -0.021710         0.956492
 C        -2.758246         0.854505         0.103923
 C        -1.480768         1.050000        -0.925064
 O        -1.715236         2.327715        -1.558993
 C        -2.720941         3.116955        -0.717699
 C        -2.669392         2.287283         0.522648
 C        -1.304541         2.331111         1.159307
 H         1.237329         1.328922         0.442775
 H        -1.629259        -0.922645         0.352725
 H        -2.048552        -0.352368         2.015834
 H        -3.739150         0.414982        -0.245156
 H        -1.205335         0.329539        -1.742948
 H        -2.261226         4.118388        -0.618799
 H        -3.769538         2.984794        -1.130643
 H        -3.428903         2.420658         1.285436
 H        -0.690231         3.206866         0.870139
 H        -1.378572         2.339287         2.240646
