19
Iteration:  2268charge 0 multiplicity 1
 O         0.657255         0.672964         0.543545
 C        -0.762227         0.972436         0.537923
 C        -1.838895        -0.014915         0.952908
 C        -2.745947         0.775671         0.088337
 C        -1.567753         1.063170        -0.862281
 O        -1.609976         2.265856        -1.514982
 C        -2.627500         3.093245        -0.799250
 C        -2.752316         2.317520         0.596921
 C        -1.275120         2.258166         1.151497
 H         1.084275         1.369519         0.047936
 H        -1.547556        -0.977841         0.624767
 H        -2.203079        -0.060896         2.020832
 H        -3.727950         0.365064        -0.300119
 H        -1.268837         0.221394        -1.470058
 H        -2.130633         4.105279        -0.850554
 H        -3.485807         3.108623        -1.377110
 H        -3.673874         2.657977         1.245510
 H        -0.725416         3.178842         0.678522
 H        -1.055713         2.241179         2.208757
