19
Iteration:  2633charge 0 multiplicity 1
 O         0.651153         0.689206         0.536817
 C        -0.786632         0.979304         0.492204
 C        -1.810284        -0.071810         0.979744
 C        -2.772132         0.881086         0.031711
 C        -1.582048         1.034600        -0.788489
 O        -1.575051         2.224003        -1.492278
 C        -2.615420         3.041887        -0.757927
 C        -2.720933         2.372574         0.550216
 C        -1.306860         2.252275         1.145479
 H         1.198117         1.438676         0.149722
 H        -1.816414        -1.023553         0.560159
 H        -1.937217        -0.046097         1.989467
 H        -3.675417         0.577388        -0.548063
 H        -1.321093         0.169031        -1.521927
 H        -2.336572         4.048808        -0.701529
 H        -3.521823         3.084400        -1.446039
 H        -3.582597         2.680161         1.245498
 H        -0.782307         3.141580         0.745917
 H        -1.124240         2.251882         2.258023
