19
Iteration:  3891charge 0 multiplicity 1
 O         0.574214         0.543251         0.661289
 C        -0.762111         1.046052         0.445016
 C        -1.839802        -0.040633         0.970101
 C        -2.743920         0.792486         0.019222
 C        -1.494279         1.058185        -0.891314
 O        -1.696695         2.345482        -1.475114
 C        -2.609604         3.043805        -0.776803
 C        -2.741615         2.290973         0.558257
 C        -1.169507         2.348643         1.115601
 H         1.119552         1.268723         0.362644
 H        -1.541109        -1.007513         0.473446
 H        -2.044664        -0.131206         2.055144
 H        -3.729141         0.443547        -0.211628
 H        -1.197061         0.288565        -1.662612
 H        -2.313112         4.120866        -0.702950
 H        -3.572437         3.048564        -1.345246
 H        -3.631291         2.655021         1.169086
 H        -0.482872         3.203926         0.648367
 H        -1.137297         2.229314         2.233188
