19
Iteration:   145charge 0 multiplicity 1
 O         0.606003         0.784550         0.430210
 C        -0.771694         0.913191         0.547505
 C        -1.882850        -0.123767         0.981375
 C        -2.744386         0.818549         0.022255
 C        -1.540392         1.027983        -0.843295
 O        -1.652383         2.245063        -1.586926
 C        -2.474068         3.114930        -0.776073
 C        -2.715040         2.346158         0.566285
 C        -1.320091         2.267633         1.278929
 H         1.095840         1.100905         1.213648
 H        -1.738577        -1.076546         0.658547
 H        -2.168279        -0.156951         2.054498
 H        -3.816982         0.596447        -0.292097
 H        -1.165030         0.172389        -1.515904
 H        -1.926241         4.065597        -0.599115
 H        -3.332588         3.307320        -1.333849
 H        -3.669001         2.783238         0.947909
 H        -0.684459         3.030562         0.945346
 H        -1.287254         2.143966         2.368702
