19
Iteration:   132charge 0 multiplicity 1
 O         0.620219         0.868113         0.345796
 C        -0.824589         1.046513         0.556620
 C        -1.920599        -0.176258         0.965644
 C        -2.888782         0.851555        -0.008492
 C        -1.561626         0.963442        -0.771279
 O        -1.560290         2.157106        -1.467563
 C        -2.416214         3.087464        -0.744812
 C        -2.695038         2.345637         0.551837
 C        -1.286692         2.269537         1.194791
 H         1.048320         1.212947         1.143119
 H        -1.617053        -1.015346         0.447358
 H        -2.334987        -0.321042         1.945884
 H        -3.739373         0.546954        -0.653548
 H        -1.277306         0.138782        -1.467172
 H        -1.857596         4.010633        -0.570510
 H        -3.365357         3.221435        -1.297433
 H        -3.349179         2.661412         1.339461
 H        -0.720149         3.171391         1.121201
 H        -1.439316         2.132867         2.273916
