19
Iteration:  4332
 O         0.569872         0.528473         0.631388
 C        -0.714072         0.935160         0.498227
 C        -1.836438        -0.043492         0.987662
 C        -2.682036         0.777194         0.057331
 C        -1.520225         1.054020        -0.896730
 O        -1.629575         2.376753        -1.532020
 C        -2.693329         3.083872        -0.762852
 C        -2.706071         2.320390         0.561548
 C        -1.262110         2.363101         1.053820
 H         1.118948         1.260924         0.313041
 H        -1.730526        -1.046406         0.528204
 H        -1.952378         0.009964         2.083522
 H        -3.727885         0.461184        -0.198830
 H        -1.032535         0.259334        -1.555046
 H        -2.445667         4.137446        -0.511714
 H        -3.604572         3.186051        -1.289939
 H        -3.460439         2.632394         1.221164
 H        -0.801947         3.335643         0.834659
 H        -1.252107         2.208516         2.270103
