19
Iteration:  2288charge 0 multiplicity 1
 O         0.636108         0.694322         0.616837
 C        -0.753306         0.995008         0.520327
 C        -1.775567        -0.087612         0.963684
 C        -2.807716         0.828740         0.029391
 C        -1.570430         1.000552        -0.858700
 O        -1.752305         2.277259        -1.662818
 C        -2.529268         3.058651        -0.754644
 C        -2.640386         2.298304         0.535252
 C        -1.291476         2.367387         1.265922
 H         1.177532         1.210069        -0.034134
 H        -1.656411        -1.054570         0.499090
 H        -1.826306        -0.210167         2.019997
 H        -3.802157         0.446848        -0.300331
 H        -1.337772         0.133376        -1.442409
 H        -1.951732         4.003033        -0.489962
 H        -3.564397         3.171569        -1.202546
 H        -3.499693         2.638197         1.092030
 H        -0.648827         3.280473         1.108222
 H        -1.432308         2.121097         2.342659
