19
Iteration:  3299charge 0 multiplicity 1
 O         0.567734         0.652825         0.579358
 C        -0.794932         0.972615         0.472039
 C        -1.824457        -0.036940         1.008428
 C        -2.723017         0.808985         0.065176
 C        -1.500050         1.033150        -0.920472
 O        -1.646512         2.343203        -1.450472
 C        -2.735076         3.100082        -0.722883
 C        -2.604939         2.285793         0.515342
 C        -1.232371         2.229747         1.085778
 H         1.103713         1.325937         0.186179
 H        -1.524909        -1.045312         0.502416
 H        -2.023188        -0.125821         2.095438
 H        -3.687678         0.435516        -0.256736
 H        -1.013251         0.321857        -1.546049
 H        -2.457765         4.265918        -0.676467
 H        -3.713625         3.183323        -1.257909
 H        -3.381204         2.524608         1.252611
 H        -0.705193         3.125564         0.715133
 H        -1.176545         2.145776         2.159522
