19
Iteration:  3001
 O         0.581132         0.650076         0.644223
 C        -0.768292         0.920748         0.523687
 C        -1.765024        -0.073535         0.957032
 C        -2.657904         0.847308         0.072006
 C        -1.499217         1.133565        -0.968009
 O        -1.705602         2.363949        -1.587407
 C        -2.666844         3.092787        -0.774207
 C        -2.739226         2.275200         0.627645
 C        -1.195859         2.222794         1.235716
 H         0.932615         0.765185        -0.222688
 H        -1.818544        -1.097054         0.536056
 H        -2.113422        -0.123781         2.065791
 H        -3.582159         0.410669        -0.349227
 H        -1.526332         0.361069        -1.713286
 H        -2.265499         4.203378        -0.715580
 H        -3.603924         3.057798        -1.399591
 H        -3.633990         2.603239         1.050344
 H        -0.624476         3.153074         0.699867
 H        -1.078038         2.235050         2.335252
