19
Iteration:   969
 O         0.612738         0.573366         0.704207
 C        -0.737757         0.994125         0.483093
 C        -1.843623         0.053684         0.836178
 C        -2.746995         0.787200         0.031328
 C        -1.526415         1.061799        -0.912480
 O        -1.687469         2.313363        -1.468350
 C        -2.641390         3.039445        -0.767793
 C        -2.667888         2.346475         0.529249
 C        -1.236498         2.233322         1.149775
 H         1.198294         1.343456         0.734509
 H        -1.712396        -0.976864         0.419323
 H        -2.140042        -0.100471         1.914338
 H        -3.657765         0.494427        -0.453579
 H        -1.390250         0.168539        -1.523542
 H        -2.337570         4.064070        -0.588295
 H        -3.610518         3.078197        -1.236541
 H        -3.540136         2.824087         1.124032
 H        -0.623074         3.102205         0.642181
 H        -1.000523         2.433538         2.279520
