19
Iteration:  2128charge 0 multiplicity 1
 O         0.523850         0.684029         0.484223
 C        -0.766228         1.000901         0.547052
 C        -1.823546        -0.051058         0.959520
 C        -2.795680         0.828158         0.108475
 C        -1.526810         1.029614        -0.825946
 O        -1.566955         2.333385        -1.551673
 C        -2.544354         3.015231        -0.784284
 C        -2.659716         2.254206         0.621881
 C        -1.308211         2.299923         1.104356
 H         0.924939         1.531153         0.219236
 H        -1.686496        -1.046512         0.657264
 H        -1.953191        -0.047918         2.116505
 H        -3.774448         0.465943        -0.289965
 H        -1.150380         0.226388        -1.446416
 H        -2.344629         4.040951        -0.651923
 H        -3.561740         2.712318        -1.276192
 H        -3.479523         2.723936         1.224947
 H        -0.672096         3.159904         0.858220
 H        -1.332702         2.247843         2.166346
