19
Iteration:   777charge 0 multiplicity 1
 O         0.548420         0.758826         0.552320
 C        -0.794388         0.965354         0.486113
 C        -1.812659        -0.119566         0.960084
 C        -2.773854         0.789567         0.027813
 C        -1.543847         0.997593        -0.860306
 O        -1.617719         2.261303        -1.493209
 C        -2.498820         3.086227        -0.833197
 C        -2.657356         2.393771         0.525494
 C        -1.347251         2.248912         1.283440
 H         0.948308         1.273068        -0.135543
 H        -1.657548        -1.026165         0.505209
 H        -1.952918        -0.190052         2.024056
 H        -3.876498         0.637513        -0.093439
 H        -1.303102         0.178346        -1.538223
 H        -1.921533         4.034582        -0.720475
 H        -3.412994         3.291068        -1.321872
 H        -3.401619         2.865374         1.082799
 H        -0.732667         3.113304         1.100762
 H        -1.260647         1.974001         2.353282
