19
Iteration:  2057
 O         0.569878         0.600019         0.739886
 C        -0.699163         1.081001         0.491053
 C        -1.782930         0.040856         0.856017
 C        -2.765310         0.809055        -0.019234
 C        -1.614512         1.021814        -0.900229
 O        -1.768663         2.281957        -1.569229
 C        -2.634157         3.027474        -0.748304
 C        -2.586681         2.250709         0.573579
 C        -1.189964         2.323187         1.159341
 H         1.126103         1.308496         0.388995
 H        -1.580146        -0.979838         0.339495
 H        -2.029122        -0.153956         1.868655
 H        -3.710100         0.439328        -0.372532
 H        -1.346957         0.114677        -1.508041
 H        -2.101692         4.028184        -0.534936
 H        -3.590905         3.152879        -1.147111
 H        -3.195761         2.548266         1.453538
 H        -0.726243         3.270000         0.832605
 H        -1.213475         2.325240         2.277013
