19
Iteration:  4804
 O         0.608355         0.499233         0.692399
 C        -0.730791         1.021208         0.487685
 C        -1.824118        -0.003572         0.905391
 C        -2.720450         0.850700         0.037251
 C        -1.602246         1.070825        -0.970300
 O        -1.714763         2.279231        -1.530802
 C        -2.614777         3.107730        -0.779885
 C        -2.684077         2.318368         0.603518
 C        -1.213773         2.307411         1.165707
 H         1.245937         1.270051         0.634362
 H        -1.945305        -1.046140         0.555259
 H        -1.951150        -0.162012         1.987174
 H        -3.613435         0.541371        -0.432319
 H        -1.148553         0.442282        -1.713157
 H        -2.113000         4.022720        -0.749304
 H        -3.580889         3.092544        -1.264136
 H        -3.562901         2.668685         1.136793
 H        -0.592381         3.065731         0.803673
 H        -1.172624         2.388171         2.340525
