19
Iteration:  3077
 O         0.625543         0.638223         0.537691
 C        -0.751376         0.979636         0.508407
 C        -1.818334        -0.019020         0.947619
 C        -2.766763         0.745140         0.044811
 C        -1.574413         1.030631        -0.859505
 O        -1.659103         2.341524        -1.583247
 C        -2.690116         3.141486        -0.833654
 C        -2.732539         2.397184         0.578359
 C        -1.176692         2.162324         1.284476
 H         1.199879         1.414074         0.696174
 H        -1.493201        -1.005024         0.587550
 H        -1.991884        -0.150777         2.076629
 H        -3.702345         0.248742        -0.285489
 H        -1.267413         0.312533        -1.647408
 H        -2.234305         4.184105        -0.656597
 H        -3.575971         3.108118        -1.373185
 H        -3.551261         2.625644         1.242177
 H        -0.513498         3.058433         0.976410
 H        -1.030734         2.096246         2.335659
