19
Iteration:   275
 O         0.560194         0.815798         0.386599
 C        -0.809801         1.024005         0.583685
 C        -1.904561        -0.099357         0.972774
 C        -2.723275         0.826701         0.057340
 C        -1.509911         0.986734        -0.798496
 O        -1.699783         2.165479        -1.606495
 C        -2.420949         3.134831        -0.777249
 C        -2.637102         2.312573         0.542592
 C        -1.335064         2.274338         1.258643
 H         1.044802         1.081082         1.162335
 H        -1.527137        -0.928041         0.475378
 H        -2.352936        -0.321427         1.997955
 H        -3.759189         0.522495        -0.342683
 H        -1.178654        -0.015778        -1.290962
 H        -1.768931         3.951085        -0.557340
 H        -3.228717         3.711365        -1.372061
 H        -3.586005         2.449466         1.071311
 H        -0.681790         3.086525         1.198930
 H        -1.459718         2.063596         2.365259
