19
Iteration:   918
 O         0.643240         0.826810         0.431452
 C        -0.778979         1.026032         0.538831
 C        -1.863769        -0.006410         0.922421
 C        -2.856402         0.819816        -0.030300
 C        -1.579604         0.995650        -0.825900
 O        -1.650697         2.163814        -1.524915
 C        -2.394761         3.103533        -0.751814
 C        -2.719791         2.278844         0.566991
 C        -1.309149         2.255843         1.256283
 H         1.033209         0.514544         1.239049
 H        -1.743447        -0.926093         0.432106
 H        -1.915251        -0.108455         2.080991
 H        -3.906825         0.580741        -0.418491
 H        -1.223570         0.134921        -1.372918
 H        -1.826936         4.044998        -0.508950
 H        -3.280890         3.462427        -1.391084
 H        -3.606564         2.529941         1.153083
 H        -0.779228         3.135977         1.210053
 H        -1.418221         1.922330         2.217033
