19
Iteration:  2658charge 0 multiplicity 1
 O         0.593500         0.580508         0.645734
 C        -0.763914         1.018684         0.514412
 C        -1.812115         0.021028         1.019149
 C        -2.732331         0.752711         0.132366
 C        -1.545065         1.071934        -0.959355
 O        -1.672873         2.362216        -1.547888
 C        -2.618245         3.041296        -0.793151
 C        -2.650439         2.296194         0.505615
 C        -1.264599         2.289367         1.144843
 H         1.233994         1.086552         0.127909
 H        -1.663991        -0.981797         0.468640
 H        -2.114182        -0.168079         2.058495
 H        -3.787643         0.360494        -0.005947
 H        -1.194819         0.410293        -1.756174
 H        -2.445825         4.134105        -0.708521
 H        -3.584276         2.983425        -1.473450
 H        -3.472806         2.601303         1.120311
 H        -0.683241         3.119426         0.816484
 H        -1.192624         2.292586         2.298544
