19
Iteration:  2857
 O         0.654558         0.709645         0.634360
 C        -0.705382         1.036285         0.461212
 C        -1.824659         0.034745         0.935970
 C        -2.807510         0.849622         0.107571
 C        -1.521224         1.087148        -0.865869
 O        -1.691522         2.322513        -1.596858
 C        -2.587431         2.958139        -0.719026
 C        -2.678115         2.262039         0.551737
 C        -1.301561         2.249636         1.121544
 H         0.755041        -0.244439         0.521033
 H        -1.749906        -0.902380         0.362289
 H        -2.128199        -0.069197         2.032624
 H        -3.686517         0.366230        -0.275119
 H        -1.207582         0.379172        -1.604406
 H        -2.339778         4.053467        -0.432497
 H        -3.532225         3.216673        -1.232866
 H        -3.366018         2.653762         1.219549
 H        -0.620705         3.104125         0.775405
 H        -1.235921         2.023318         2.189472
