19
Iteration:  2031
 O         0.648895         0.641241         0.669289
 C        -0.720523         0.959464         0.489218
 C        -1.770530        -0.124480         0.959877
 C        -2.726960         0.879181         0.064525
 C        -1.559410         1.030552        -0.921579
 O        -1.785260         2.316681        -1.647513
 C        -2.589858         3.132994        -0.845540
 C        -2.715837         2.313554         0.602255
 C        -1.244268         2.241856         1.208681
 H         0.936798         1.576200         0.686510
 H        -1.855278        -1.089727         0.596692
 H        -1.881927        -0.135039         2.106345
 H        -3.718538         0.500217        -0.282824
 H        -1.248860         0.194087        -1.531614
 H        -2.087102         4.078980        -0.734295
 H        -3.548535         3.456799        -1.353843
 H        -3.341866         2.476015         1.421291
 H        -0.756748         3.214857         0.920555
 H        -1.205612         2.016908         2.401722
