19
Iteration:  1214
 O         0.643033         0.829957         0.554686
 C        -0.780305         0.958873         0.517232
 C        -1.839154        -0.048104         0.920690
 C        -2.847753         0.819708         0.013908
 C        -1.518777         1.044943        -0.830378
 O        -1.702016         2.234257        -1.595822
 C        -2.431254         3.149745        -0.768717
 C        -2.695574         2.310460         0.528080
 C        -1.332629         2.203979         1.274926
 H         1.052641        -0.066457         0.495729
 H        -1.620275        -1.023414         0.541195
 H        -2.007697        -0.079068         2.007452
 H        -3.727460         0.223211        -0.315036
 H        -1.328872         0.092631        -1.373416
 H        -1.764533         4.016219        -0.534309
 H        -3.337691         3.623165        -1.420270
 H        -3.532921         2.733023         1.035844
 H        -0.740174         3.123046         1.297893
 H        -1.522165         1.882487         2.322682
