19
Iteration:  3518charge 0 multiplicity 1
 O         0.568444         0.696090         0.570303
 C        -0.791710         1.009536         0.428943
 C        -1.809636        -0.147329         0.942760
 C        -2.827229         0.809362         0.066986
 C        -1.557273         1.079239        -0.869180
 O        -1.637679         2.279886        -1.581782
 C        -2.569419         3.063709        -0.786716
 C        -2.595330         2.297559         0.631824
 C        -1.279861         2.298338         1.207234
 H         1.141000         1.504607         0.476921
 H        -1.545184        -1.198830         0.604463
 H        -2.051936        -0.131022         2.101822
 H        -3.776411         0.464856        -0.328506
 H        -1.408044         0.206297        -1.525654
 H        -2.084899         4.099457        -0.684495
 H        -3.531458         3.078920        -1.216929
 H        -3.412991         2.789846         1.263527
 H        -0.696036         3.353830         1.024519
 H        -1.179063         2.105337         2.275191
