19
Iteration:  2292charge 0 multiplicity 1
 O         0.612294         0.699445         0.626683
 C        -0.764422         0.982182         0.520052
 C        -1.782988        -0.057783         0.938288
 C        -2.743335         0.838612         0.067578
 C        -1.561845         1.006203        -0.867422
 O        -1.763358         2.263626        -1.662209
 C        -2.543510         3.054704        -0.745505
 C        -2.625123         2.295992         0.529372
 C        -1.295176         2.350770         1.244003
 H         1.093618         1.222457        -0.024320
 H        -1.584167        -1.017812         0.458931
 H        -1.909194        -0.218230         2.074485
 H        -3.748962         0.484747        -0.240437
 H        -1.341288         0.096723        -1.456512
 H        -1.977628         3.971672        -0.587623
 H        -3.463131         3.345354        -1.167800
 H        -3.614542         2.593788         1.091278
 H        -0.641846         3.284441         1.218652
 H        -1.418125         1.996876         2.237136
