19
Iteration:  3249charge 0 multiplicity 1
 O         0.619212         0.578324         0.593597
 C        -0.676979         0.917448         0.571685
 C        -1.769300        -0.046523         0.909318
 C        -2.716070         0.823526         0.007518
 C        -1.538347         1.118235        -0.796087
 O        -1.792134         2.327855        -1.545084
 C        -2.673366         3.089201        -0.790389
 C        -2.708566         2.347834         0.552393
 C        -1.198477         2.256663         1.146070
 H         1.208439         1.330946         0.415473
 H        -1.648539        -0.951178         0.434288
 H        -1.929846        -0.171554         2.002545
 H        -3.648433         0.473538        -0.461277
 H        -1.234506         0.255672        -1.509778
 H        -2.385913         4.075550        -0.668546
 H        -3.647080         3.155546        -1.343908
 H        -3.494687         2.836977         1.198305
 H        -0.592527         3.114683         0.921062
 H        -1.305784         2.117435         2.304725
