19
Iteration:  3789
 O         0.620654         0.680118         0.570707
 C        -0.765849         1.002578         0.521208
 C        -1.823751        -0.012915         0.975402
 C        -2.725945         0.901275         0.008717
 C        -1.627661         0.946497        -0.861852
 O        -1.620285         2.237469        -1.543968
 C        -2.586277         3.085869        -0.727548
 C        -2.695637         2.329817         0.548416
 C        -1.276926         2.258895         1.154869
 H         1.046036         1.500692         0.200071
 H        -1.715014        -0.961429         0.467191
 H        -1.996450        -0.322649         2.021716
 H        -3.614118         0.648251        -0.586250
 H        -1.288055         0.197983        -1.596214
 H        -2.165129         4.060999        -0.626113
 H        -3.554330         3.112024        -1.198946
 H        -3.531392         2.667392         1.150806
 H        -0.669965         3.198937         1.255664
 H        -1.308411         1.887227         2.327728
