19
Iteration:  2583
 O         0.635824         0.660057         0.586101
 C        -0.762566         0.941522         0.515002
 C        -1.787645         0.022193         0.953119
 C        -2.755836         0.855350         0.087386
 C        -1.490560         0.993501        -0.877761
 O        -1.719958         2.274447        -1.549162
 C        -2.535598         3.056030        -0.771548
 C        -2.734714         2.328465         0.549953
 C        -1.326820         2.251122         1.147466
 H         1.071290         1.516889         0.371679
 H        -1.657681        -1.045998         0.444292
 H        -1.943763         0.101280         2.098919
 H        -3.685741         0.317814        -0.225863
 H        -1.344454         0.269063        -1.647909
 H        -2.016705         4.086982        -0.746887
 H        -3.480634         3.258097        -1.250730
 H        -3.523559         2.665622         1.177073
 H        -0.862008         3.247928         0.953385
 H        -1.302820         2.063868         2.265623
