19
Iteration:  3692
 O         0.577197         0.616640         0.660464
 C        -0.760157         0.992040         0.485473
 C        -1.775202        -0.078268         0.978086
 C        -2.763038         0.823557         0.002119
 C        -1.588558         1.078611        -0.927580
 O        -1.666882         2.310071        -1.550057
 C        -2.622499         3.042778        -0.785779
 C        -2.661050         2.359673         0.586127
 C        -1.225190         2.284643         1.170651
 H         1.195801         1.311182         0.311059
 H        -1.725790        -1.078478         0.511094
 H        -2.093952        -0.104549         2.075839
 H        -3.675111         0.308517        -0.086307
 H        -1.124075         0.283884        -1.548439
 H        -2.365739         4.115855        -1.000183
 H        -3.708386         3.067032        -1.248363
 H        -3.428579         2.652070         1.320537
 H        -0.602359         3.148254         0.874073
 H        -1.106487         2.247861         2.190396
