19
Iteration:  4810charge 0 multiplicity 1
 O         0.595637         0.524064         0.677140
 C        -0.699006         1.004665         0.490216
 C        -1.824732         0.005373         0.923830
 C        -2.763624         0.874989         0.028900
 C        -1.565683         1.131196        -0.921526
 O        -1.725403         2.293542        -1.597338
 C        -2.602792         3.054284        -0.727207
 C        -2.685969         2.286262         0.596265
 C        -1.194743         2.286100         1.173662
 H         1.298928         1.157800         0.611509
 H        -1.961281        -1.020688         0.561638
 H        -2.154296        -0.101737         1.981974
 H        -3.708124         0.393475        -0.395003
 H        -1.170200         0.304259        -1.568690
 H        -2.059713         4.074502        -0.678635
 H        -3.572438         2.965743        -1.341611
 H        -3.575368         2.839592         1.016353
 H        -0.528707         3.187648         0.832766
 H        -1.272029         2.216628         2.209320
