19
Iteration:  4836
 O         0.552841         0.607897         0.600070
 C        -0.768927         0.956153         0.516070
 C        -1.814686        -0.054928         1.029514
 C        -2.723993         0.832351         0.002352
 C        -1.586577         1.003724        -0.961424
 O        -1.672100         2.301838        -1.547834
 C        -2.606329         3.166064        -0.801638
 C        -2.627718         2.314339         0.591471
 C        -1.222084         2.290857         1.237257
 H         1.142840         1.285345         0.281917
 H        -1.802504        -1.021280         0.498346
 H        -2.094158        -0.008373         2.108013
 H        -3.693665         0.522654        -0.354585
 H        -1.105008         0.266640        -1.591730
 H        -2.142709         4.151325        -0.881379
 H        -3.582726         3.205402        -1.395588
 H        -3.484736         2.558192         1.133237
 H        -0.601823         3.041790         0.935011
 H        -1.341514         2.153561         2.344522
