19
Iteration:   317charge 0 multiplicity 1
 O         0.602199         0.750044         0.602117
 C        -0.754371         0.943775         0.486502
 C        -1.820385        -0.075195         1.004665
 C        -2.764504         0.834150         0.117004
 C        -1.612042         0.953120        -0.899219
 O        -1.644668         2.301723        -1.608077
 C        -2.575732         3.126163        -0.818914
 C        -2.683837         2.323848         0.488733
 C        -1.216968         2.209668         1.167584
 H         0.865120         1.210351         1.413696
 H        -1.799281        -1.052953         0.500422
 H        -2.004218         0.028521         2.141614
 H        -3.795080         0.520079        -0.218470
 H        -1.439843         0.232667        -1.752612
 H        -2.123906         4.029085        -0.517044
 H        -3.491991         3.348189        -1.352094
 H        -3.321753         2.759873         1.197730
 H        -0.525060         3.013399         1.132518
 H        -1.365094         2.111684         2.257106
