19
Iteration:  1472
 O         0.645030         0.535775         0.679454
 C        -0.749471         0.992927         0.502398
 C        -1.839367        -0.034294         0.920268
 C        -2.763746         0.842153         0.063867
 C        -1.521705         1.051686        -0.874798
 O        -1.636724         2.363596        -1.494973
 C        -2.663173         3.059459        -0.833808
 C        -2.733891         2.316749         0.520289
 C        -1.231257         2.281271         1.158590
 H         1.150083         1.342361         0.655604
 H        -1.678632        -1.026479         0.503558
 H        -2.042588        -0.160457         1.948530
 H        -3.694134         0.544126        -0.508022
 H        -1.439165         0.206378        -1.526276
 H        -2.453136         4.181130        -0.858349
 H        -3.661430         3.074589        -1.445678
 H        -3.403943         2.677409         1.329376
 H        -0.720771         3.098119         0.575133
 H        -0.972364         2.366003         2.173110
