19
Iteration:  2463
 O         0.661903         0.718097         0.574837
 C        -0.742591         0.950927         0.557182
 C        -1.812641        -0.017336         0.954529
 C        -2.784346         0.811537         0.075866
 C        -1.540108         1.034245        -0.983655
 O        -1.688702         2.197878        -1.587370
 C        -2.567670         3.109695        -0.746240
 C        -2.713963         2.348787         0.526062
 C        -1.286984         2.264216         1.256844
 H         1.053955         1.497810         0.185989
 H        -1.707068        -1.146969         0.566059
 H        -1.948736        -0.150687         2.078121
 H        -3.905098         0.514059         0.022658
 H        -1.374166         0.239886        -1.680671
 H        -2.047071         4.121976        -0.536652
 H        -3.592376         3.052396        -1.178564
 H        -3.626832         2.665379         0.950456
 H        -0.639413         3.166449         1.012384
 H        -1.219186         2.173213         2.364513
