19
Iteration:  3615
 O         0.695688         0.606519         0.561251
 C        -0.770879         0.964166         0.521812
 C        -1.853131        -0.017312         0.974990
 C        -2.741664         0.873368         0.061294
 C        -1.509101         0.997201        -0.964591
 O        -1.652846         2.270963        -1.521251
 C        -2.575883         3.088027        -0.753997
 C        -2.760544         2.317730         0.612735
 C        -1.340651         2.295361         1.212630
 H         1.064520         1.449683         0.150456
 H        -1.611219        -0.866719         0.300606
 H        -1.980337         0.000843         2.119198
 H        -3.682671         0.599846        -0.428302
 H        -1.373548         0.151214        -1.622012
 H        -2.077762         4.139849        -0.752087
 H        -3.612072         2.951252        -1.324192
 H        -3.603410         2.566577         1.270069
 H        -0.840193         3.214692         0.728616
 H        -1.160836         2.341035         2.218686
