19
Iteration:   623
 O         0.563537         0.721939         0.485824
 C        -0.779475         0.990772         0.491271
 C        -1.869183        -0.037947         0.936274
 C        -2.818237         0.793924         0.097501
 C        -1.561766         1.025970        -0.828069
 O        -1.549283         2.214025        -1.461436
 C        -2.520163         3.034580        -0.809776
 C        -2.703981         2.326925         0.588106
 C        -1.284362         2.319943         1.176841
 H         1.037674         1.598224         0.349793
 H        -1.790109        -0.963368         0.422090
 H        -2.090841        -0.167242         2.026157
 H        -3.642689         0.306098        -0.567780
 H        -1.309652         0.108995        -1.481967
 H        -2.027398         4.046053        -0.693278
 H        -3.379329         3.204756        -1.481327
 H        -3.447777         2.721439         1.212286
 H        -0.815202         3.298235         0.954621
 H        -1.133394         2.233871         2.319904
