19
Iteration:  4075
 O         0.612453         0.621307         0.569502
 C        -0.722665         1.003072         0.569567
 C        -1.869549         0.054242         0.964188
 C        -2.764166         0.792652        -0.021838
 C        -1.590360         1.022103        -0.922657
 O        -1.672202         2.272687        -1.516987
 C        -2.536178         3.065646        -0.788439
 C        -2.676097         2.349844         0.604505
 C        -1.257115         2.238223         1.167226
 H         1.103983         1.480392         0.468102
 H        -1.791275        -0.990622         0.584541
 H        -2.026498         0.004988         2.042821
 H        -3.627385         0.223497        -0.327134
 H        -1.225698         0.313442        -1.727896
 H        -2.100797         4.069971        -0.684598
 H        -3.724199         3.145739        -1.204769
 H        -3.620282         2.430270         1.253968
 H        -0.622282         3.098937         0.809752
 H        -1.231884         2.423273         2.347695
