19
Iteration:  4977
 O         0.641928         0.598606         0.650529
 C        -0.729464         0.953124         0.475356
 C        -1.887058        -0.026790         0.936360
 C        -2.821539         0.823629         0.049435
 C        -1.570440         1.065806        -0.921547
 O        -1.629624         2.280096        -1.516444
 C        -2.598060         3.126332        -0.730537
 C        -2.637417         2.321666         0.526745
 C        -1.230216         2.296545         1.134211
 H         1.102785         1.412616         0.474663
 H        -1.491395        -1.006731         0.464308
 H        -2.308630        -0.085102         2.005225
 H        -3.870981         0.617159        -0.312908
 H        -1.215629         0.156708        -1.503534
 H        -2.496097         4.229892        -0.824092
 H        -3.676553         3.118424        -1.138954
 H        -3.443682         2.471907         1.233738
 H        -0.521396         3.129951         0.870391
 H        -1.396585         1.986358         2.220613
