19
Iteration:   841
 O         0.582215         0.505755         0.741526
 C        -0.746509         1.010363         0.552636
 C        -1.780931        -0.002859         0.957074
 C        -2.746413         0.805618         0.003083
 C        -1.449891         1.110087        -0.904028
 O        -1.680833         2.401924        -1.591872
 C        -2.752225         3.064456        -0.778838
 C        -2.652165         2.259666         0.564646
 C        -1.196718         2.365758         1.116926
 H         0.743842        -0.105144        -0.021913
 H        -1.461630        -0.944992         0.662241
 H        -2.152666        -0.121065         2.025714
 H        -3.737236         0.335987        -0.297466
 H        -1.122462         0.300454        -1.594324
 H        -2.367933         4.112568        -0.555084
 H        -3.743629         3.065969        -1.409543
 H        -3.454359         2.582038         1.269086
 H        -0.804724         3.140901         0.535048
 H        -1.236227         2.575600         2.134336
