19
Iteration:  1985charge 0 multiplicity 1
 O         0.615478         0.672484         0.450205
 C        -0.755056         0.992131         0.503059
 C        -1.871051        -0.044075         0.931145
 C        -2.751798         0.839558         0.087732
 C        -1.541500         1.012063        -0.867197
 O        -1.516930         2.254719        -1.441347
 C        -2.614497         3.042091        -0.766554
 C        -2.740528         2.260780         0.582809
 C        -1.317026         2.358247         1.190860
 H         1.009369         1.486213         0.152914
 H        -1.611373        -1.040165         0.569453
 H        -2.069345        -0.019065         2.032734
 H        -3.684822         0.557752        -0.444881
 H        -1.506996         0.199263        -1.591068
 H        -2.322448         4.054266        -0.616983
 H        -3.594064         3.033146        -1.356298
 H        -3.615825         2.540242         1.252637
 H        -0.695877         3.265375         0.819418
 H        -1.198449         2.370121         2.373420
