19
Iteration:   860
 O         0.676054         0.607228         0.642985
 C        -0.729576         1.003193         0.471660
 C        -1.874770         0.028143         0.946746
 C        -2.701891         0.838494         0.020496
 C        -1.508274         1.106969        -0.897268
 O        -1.611176         2.325606        -1.503575
 C        -2.683426         3.011205        -0.739237
 C        -2.726921         2.316659         0.559601
 C        -1.262534         2.333498         1.124837
 H         0.757997        -0.372933         0.466751
 H        -2.004527        -1.054854         0.576952
 H        -2.131641        -0.018626         2.083351
 H        -3.670783         0.503281        -0.337429
 H        -1.377690         0.309022        -1.665104
 H        -2.463382         4.073237        -0.839999
 H        -3.546627         2.755500        -1.358427
 H        -3.705074         2.610016         1.122115
 H        -0.706097         3.292327         0.954853
 H        -1.147625         2.147309         2.201529
