19
Iteration:  3538
 O         0.609992         0.621298         0.559085
 C        -0.740959         0.886748         0.596443
 C        -1.814729         0.026068         0.995338
 C        -2.696898         0.787314         0.037461
 C        -1.533959         1.025178        -0.866756
 O        -1.722334         2.349131        -1.551344
 C        -2.652107         3.131743        -0.781540
 C        -2.708339         2.336749         0.520347
 C        -1.218398         2.232145         1.147701
 H         1.089837         1.435227         0.563715
 H        -1.734928        -1.011007         0.471060
 H        -2.065846        -0.335178         2.036062
 H        -3.729865         0.466770        -0.255355
 H        -1.140593         0.372859        -1.588426
 H        -2.247811         4.146402        -0.503976
 H        -3.509531         3.222352        -1.389864
 H        -3.627789         2.472039         1.069366
 H        -0.511073         3.106429         0.752957
 H        -1.158566         2.300400         2.206802
