19
Iteration:  3740charge 0 multiplicity 1
 O         0.572135         0.568254         0.619534
 C        -0.733858         0.957252         0.472186
 C        -1.800186        -0.011102         0.940413
 C        -2.714861         0.842056         0.023358
 C        -1.544817         1.012486        -0.886978
 O        -1.651426         2.300644        -1.461790
 C        -2.649315         3.063142        -0.792628
 C        -2.711121         2.303230         0.563638
 C        -1.242717         2.353829         1.157177
 H         1.138562         1.320201         0.375584
 H        -1.533670        -1.078507         0.710242
 H        -2.019720         0.078199         2.041255
 H        -3.687919         0.487021        -0.410592
 H        -1.462791         0.405632        -1.822441
 H        -2.370171         4.168283        -0.669684
 H        -3.579479         3.146628        -1.388761
 H        -3.576849         2.448117         1.267211
 H        -0.633276         3.140468         0.673524
 H        -1.060291         2.540473         2.252466
