19
Iteration:  4508charge 0 multiplicity 1
 O         0.585586         0.605132         0.639723
 C        -0.741156         0.937195         0.492951
 C        -1.844665        -0.039762         0.935558
 C        -2.728663         0.862070         0.016788
 C        -1.547729         1.109455        -0.872616
 O        -1.667805         2.288677        -1.524842
 C        -2.621261         3.094108        -0.759769
 C        -2.725155         2.298612         0.551010
 C        -1.213637         2.247529         1.098493
 H         1.093105         1.414210         0.777693
 H        -1.475716        -1.057328         0.787861
 H        -2.052234         0.004584         2.034275
 H        -3.634348         0.527100        -0.535116
 H        -1.411270         0.192230        -1.567776
 H        -2.100836         4.002997        -0.566283
 H        -3.587657         3.081951        -1.330455
 H        -3.262736         2.780750         1.319915
 H        -0.791215         3.110334         0.711874
 H        -1.213632         2.343524         2.252957
