19
Iteration:  3023charge 0 multiplicity 1
 O         0.630410         0.703288         0.580732
 C        -0.765320         1.008680         0.494147
 C        -1.827652        -0.053161         0.930612
 C        -2.821958         0.752956         0.021041
 C        -1.547734         1.028023        -0.861204
 O        -1.624105         2.314819        -1.523567
 C        -2.651089         3.099647        -0.682635
 C        -2.657394         2.308465         0.584752
 C        -1.242277         2.264710         1.132094
 H         1.109757         0.946471        -0.260253
 H        -1.680470        -1.098083         0.529380
 H        -2.068620        -0.141171         2.065745
 H        -3.794753         0.423027        -0.392575
 H        -1.172398         0.288795        -1.560334
 H        -2.138801         4.149545        -0.573048
 H        -3.599470         3.182109        -1.258457
 H        -3.453662         2.580382         1.230503
 H        -0.511255         3.219853         0.956662
 H        -1.445806         2.066641         2.199902
