19
Iteration:  1393
 O         0.596384         0.811914         0.628005
 C        -0.809751         0.975622         0.546671
 C        -1.805284        -0.142966         0.967752
 C        -2.750144         0.813994         0.033791
 C        -1.569568         1.062495        -0.886554
 O        -1.670103         2.244436        -1.607949
 C        -2.459596         3.127256        -0.777643
 C        -2.729573         2.388163         0.542300
 C        -1.282386         2.215981         1.225724
 H         0.817835         0.216248        -0.074647
 H        -1.819810        -1.176830         0.575520
 H        -1.970163        -0.084803         1.948425
 H        -3.729384         0.600594        -0.312472
 H        -1.354319         0.205886        -1.574608
 H        -1.775958         4.006211        -0.670428
 H        -3.409599         3.367575        -1.371581
 H        -3.622785         2.588903         1.210405
 H        -0.575515         3.016270         1.115714
 H        -1.322013         1.898403         2.284190
