19
Iteration:  1817
 O         0.618101         0.695481         0.479730
 C        -0.769162         1.023808         0.468436
 C        -1.815778         0.024245         0.980572
 C        -2.762949         0.844766         0.034136
 C        -1.575058         1.037596        -0.927965
 O        -1.567973         2.232916        -1.517318
 C        -2.641606         3.026976        -0.702326
 C        -2.672406         2.274647         0.575284
 C        -1.287843         2.332527         1.197027
 H         0.754968         0.270269         1.314807
 H        -1.625055        -0.998300         0.518006
 H        -2.109604        -0.002453         2.029533
 H        -3.755768         0.694613        -0.263244
 H        -1.394934         0.258404        -1.729295
 H        -2.340245         4.044997        -0.625744
 H        -3.515073         2.978267        -1.280250
 H        -3.558255         2.486097         1.171276
 H        -0.666995         3.339338         0.921918
 H        -1.104563         2.120441         2.308788
