19
Iteration:   521charge 0 multiplicity 1
 O         0.616721         0.480742         0.814114
 C        -0.679052         0.919555         0.470321
 C        -1.858561         0.073814         0.896277
 C        -2.697879         0.923686         0.058150
 C        -1.521552         1.082429        -0.961050
 O        -1.679203         2.358150        -1.518072
 C        -2.805016         3.003715        -0.798909
 C        -2.624385         2.263457         0.565065
 C        -1.231625         2.351973         1.054720
 H         1.246614         1.149863         0.560781
 H        -1.642972        -0.963724         0.443033
 H        -1.870964         0.080713         1.965743
 H        -3.591665         0.477941        -0.321221
 H        -1.472934         0.312486        -1.716957
 H        -2.530782         4.087325        -0.631420
 H        -3.745578         2.812256        -1.332195
 H        -3.491083         2.490166         1.388268
 H        -0.518553         3.150866         0.635955
 H        -1.181929         2.370289         2.136475
