19
Iteration:  2212charge 0 multiplicity 1
 O         0.631043         0.548595         0.620136
 C        -0.695914         1.018801         0.509306
 C        -1.821468        -0.025508         0.973713
 C        -2.742992         0.855503         0.082260
 C        -1.505879         1.057591        -0.875999
 O        -1.703208         2.282181        -1.530551
 C        -2.736694         3.051533        -0.765387
 C        -2.695336         2.303370         0.505577
 C        -1.225910         2.322181         1.120538
 H         1.309001         1.252847         0.560103
 H        -1.686415        -1.000213         0.424162
 H        -1.877326        -0.179580         2.068757
 H        -3.649565         0.629917        -0.537718
 H        -1.167596         0.229743        -1.474740
 H        -2.377481         4.140441        -0.691080
 H        -3.654017         3.151845        -1.278810
 H        -3.527175         2.702349         1.231446
 H        -0.697318         3.268451         0.704710
 H        -1.245271         2.320150         2.235870
