19
Iteration:  2233
 O         0.607504         0.596119         0.578252
 C        -0.771098         0.969405         0.473458
 C        -1.832520         0.013569         1.005727
 C        -2.767735         0.767007         0.052477
 C        -1.576636         1.085581        -0.905924
 O        -1.556098         2.384747        -1.483469
 C        -2.677469         2.976119        -0.831310
 C        -2.711989         2.311845         0.624488
 C        -1.211248         2.301191         1.104337
 H         1.051885         1.440725         0.479830
 H        -1.464474        -1.015969         0.780493
 H        -2.175094         0.158416         2.000280
 H        -3.760301         0.262838        -0.058173
 H        -1.361999         0.322733        -1.645141
 H        -2.606303         4.114276        -0.918402
 H        -3.635107         2.788385        -1.322093
 H        -3.557153         2.559661         1.325377
 H        -0.580031         3.140798         0.626483
 H        -0.962497         2.253374         2.210352
