19
Iteration:   881
 O         0.572959         0.825708         0.532873
 C        -0.811068         0.944088         0.541455
 C        -1.858184        -0.040624         0.962304
 C        -2.825867         0.802525         0.060058
 C        -1.567202         0.975046        -0.858647
 O        -1.560015         2.362952        -1.497640
 C        -2.603664         3.080198        -0.844421
 C        -2.634692         2.312085         0.523915
 C        -1.244311         2.186791         1.174539
 H         0.968362         0.020075         0.869528
 H        -1.708783        -1.172313         0.610302
 H        -1.924227        -0.130526         2.121281
 H        -3.799834         0.668733        -0.382253
 H        -1.197334         0.317184        -1.672220
 H        -2.247089         4.106147        -0.791263
 H        -3.519245         3.042608        -1.416996
 H        -3.405916         2.681972         1.330377
 H        -0.427911         2.991228         1.006562
 H        -1.222765         2.163231         2.320549
