19
Iteration:  2199
 O         0.639106         0.550225         0.662326
 C        -0.772048         1.015470         0.524895
 C        -1.775790        -0.078681         0.957652
 C        -2.724846         0.735403        -0.014105
 C        -1.561486         1.058763        -0.882179
 O        -1.785114         2.281964        -1.614380
 C        -2.618386         3.099209        -0.775966
 C        -2.632966         2.401075         0.583845
 C        -1.263700         2.376018         1.165490
 H         1.188431         1.339891         0.469383
 H        -1.294110        -1.083016         0.679913
 H        -2.139471        -0.115102         1.922643
 H        -3.734627         0.368739        -0.165848
 H        -1.228476         0.383683        -1.685676
 H        -2.139769         4.130915        -0.788722
 H        -3.653902         2.936705        -1.109919
 H        -3.413833         2.676213         1.265893
 H        -0.611254         3.237367         0.859771
 H        -1.267383         2.334684         2.341532
