19
Iteration:  2122
 O         0.536508         0.672557         0.473528
 C        -0.807872         1.000455         0.507369
 C        -1.851521        -0.011335         0.956033
 C        -2.763555         0.809400         0.100367
 C        -1.509841         1.010254        -0.850761
 O        -1.524714         2.324190        -1.510850
 C        -2.606732         2.944190        -0.756182
 C        -2.702658         2.306477         0.619626
 C        -1.283437         2.336718         1.153469
 H         1.138546         1.424394         0.196423
 H        -1.793956        -1.108430         0.622688
 H        -1.979893         0.057427         1.984756
 H        -3.562736         0.274402        -0.378203
 H        -1.185197         0.259633        -1.619079
 H        -2.335434         4.067148        -0.775039
 H        -3.570282         2.856368        -1.197226
 H        -3.380123         2.844441         1.269450
 H        -0.804064         3.226474         0.692468
 H        -1.224180         2.211614         2.317054
