19
Iteration:   552
 O         0.551109         0.555647         0.666341
 C        -0.779069         1.006996         0.560262
 C        -1.843024        -0.012429         0.981502
 C        -2.672895         0.765066         0.026412
 C        -1.524452         1.041643        -0.878883
 O        -1.748334         2.322301        -1.632583
 C        -2.595859         3.108580        -0.817693
 C        -2.661811         2.231546         0.565006
 C        -1.229898         2.374098         1.200474
 H         1.211051         1.185430         0.262128
 H        -1.331936        -0.910938         0.441174
 H        -2.042742        -0.052887         2.037749
 H        -3.535365         0.384284        -0.396748
 H        -1.283985         0.367318        -1.645184
 H        -2.156944         4.073556        -0.638119
 H        -3.528577         3.301325        -1.267618
 H        -3.576495         2.555571         1.283557
 H        -0.646777         3.208594         0.768486
 H        -1.092652         2.464877         2.245902
