19
Iteration:  1391
 O         0.603314         0.822626         0.639363
 C        -0.832630         0.979162         0.528190
 C        -1.803031        -0.126708         0.941925
 C        -2.758272         0.815004         0.046798
 C        -1.574312         1.066420        -0.886514
 O        -1.664002         2.233425        -1.613787
 C        -2.461620         3.134878        -0.772629
 C        -2.734765         2.366750         0.538783
 C        -1.266608         2.217381         1.233744
 H         0.773954         0.163399        -0.056445
 H        -1.825188        -1.177746         0.575664
 H        -1.930708        -0.118327         2.049560
 H        -3.740638         0.553679        -0.340926
 H        -1.357467         0.176480        -1.598792
 H        -1.789459         3.993070        -0.685195
 H        -3.354975         3.377539        -1.374869
 H        -3.551882         2.647853         1.253797
 H        -0.549296         3.029059         1.100482
 H        -1.345744         1.851121         2.378755
