19
Iteration:  4947
 O         0.557025         0.552789         0.717536
 C        -0.776273         0.956447         0.490062
 C        -1.856109        -0.003019         0.903763
 C        -2.748871         0.792153         0.127809
 C        -1.499583         1.134122        -0.935539
 O        -1.691350         2.299069        -1.601274
 C        -2.622077         3.178007        -0.757853
 C        -2.703147         2.261917         0.555458
 C        -1.158753         2.300676         1.091647
 H         1.180089         1.306007         0.516727
 H        -1.502458        -1.005344         0.354753
 H        -2.012756        -0.095314         2.034881
 H        -3.769742         0.508935        -0.125838
 H        -1.192318         0.210593        -1.482040
 H        -2.120089         4.086720        -0.495338
 H        -3.640760         3.067389        -1.259269
 H        -3.608356         2.492540         1.182413
 H        -0.580664         3.131047         0.727979
 H        -1.047021         2.039858         2.254661
