19
Iteration:  4703
 O         0.592942         0.653948         0.598692
 C        -0.781667         1.018085         0.457149
 C        -1.869995        -0.053920         0.956620
 C        -2.803088         0.795926         0.005731
 C        -1.578681         1.037300        -0.852714
 O        -1.637488         2.251585        -1.538782
 C        -2.521833         3.091671        -0.735001
 C        -2.623523         2.318992         0.547728
 C        -1.275750         2.276726         1.212847
 H         1.076036         1.322599         0.126066
 H        -1.559112        -0.875311         0.331882
 H        -1.949683        -0.177278         2.073260
 H        -3.878412         0.468656        -0.335894
 H        -1.385698         0.214985        -1.618428
 H        -2.015990         4.038671        -0.509628
 H        -3.386780         3.363487        -1.257657
 H        -3.454922         2.732418         1.118370
 H        -0.688728         3.170766         0.936416
 H        -1.406712         2.246332         2.344695
