19
Iteration:   579
 O         0.679695         0.763782         0.541514
 C        -0.773948         0.991475         0.440687
 C        -1.937081        -0.005893         0.980070
 C        -2.802607         0.843116         0.048848
 C        -1.542938         0.950856        -0.821111
 O        -1.633915         2.218908        -1.559299
 C        -2.476133         3.072428        -0.787311
 C        -2.717073         2.347081         0.583634
 C        -1.320593         2.205743         1.224541
 H         1.246532         1.531016         0.246269
 H        -1.678553        -0.966312         0.632591
 H        -2.071437        -0.052333         2.099598
 H        -3.801076         0.465892        -0.410340
 H        -1.336096         0.175429        -1.622684
 H        -2.051114         4.126257        -0.732081
 H        -3.511479         3.201272        -1.292935
 H        -3.507386         2.765066         1.124334
 H        -0.687541         3.120111         1.157320
 H        -1.305317         1.867155         2.322792
