19
Iteration:  4219
 O         0.599773         0.643912         0.584615
 C        -0.719854         0.949716         0.558188
 C        -1.929910        -0.062648         0.955093
 C        -2.722817         0.788805         0.056872
 C        -1.536158         1.021313        -0.886743
 O        -1.645326         2.294608        -1.583038
 C        -2.649171         3.141495        -0.747548
 C        -2.649936         2.368845         0.544050
 C        -1.237655         2.268368         1.146253
 H         1.180803         1.386832         0.662519
 H        -1.502853        -0.960031         0.506079
 H        -2.055010        -0.117900         2.027170
 H        -3.728966         0.422263        -0.228864
 H        -1.290462         0.311899        -1.660570
 H        -2.348367         4.162159        -0.822456
 H        -3.528315         3.070969        -1.258342
 H        -3.465253         2.577624         1.314216
 H        -0.687832         3.166876         0.843086
 H        -1.315452         2.066899         2.349371
