19
Iteration:  4112charge 0 multiplicity 1
 O         0.575831         0.683870         0.585021
 C        -0.776450         0.937723         0.479989
 C        -1.783126         0.009463         0.931798
 C        -2.798726         0.825483         0.091302
 C        -1.630663         1.037409        -0.873018
 O        -1.593309         2.279286        -1.565074
 C        -2.528037         3.059712        -0.787584
 C        -2.716508         2.334853         0.584320
 C        -1.236060         2.242870         1.213436
 H         1.146890         1.408322         0.367972
 H        -1.630024        -0.962866         0.427454
 H        -2.045711        -0.181538         2.001056
 H        -3.795714         0.378961        -0.172630
 H        -1.294085         0.277394        -1.536341
 H        -2.085660         4.084968        -0.964617
 H        -3.621522         3.080303        -1.314179
 H        -3.532163         2.637535         1.242403
 H        -0.748457         3.121438         0.908284
 H        -1.294086         2.190198         2.313437
