19
Iteration:  1692charge 0 multiplicity 1
 O         0.537989         0.746307         0.367673
 C        -0.829449         0.989900         0.542899
 C        -1.875336        -0.048045         1.012713
 C        -2.704320         0.788781         0.031573
 C        -1.565850         1.007704        -0.877441
 O        -1.532100         2.271143        -1.487511
 C        -2.520919         3.059411        -0.745083
 C        -2.669412         2.299232         0.548802
 C        -1.327732         2.298830         1.238739
 H         1.032428         1.012850         1.136450
 H        -1.551107        -1.054210         0.676719
 H        -2.224004        -0.117146         2.068270
 H        -3.788917         0.452967        -0.335502
 H        -1.290151         0.246359        -1.643966
 H        -2.129609         4.124266        -0.671279
 H        -3.454076         3.057387        -1.204783
 H        -3.611124         2.658132         1.039734
 H        -0.700466         3.169235         0.751159
 H        -1.275018         2.239126         2.340810
