19
Iteration:  1407charge 0 multiplicity 1
 O         0.634614         0.736993         0.581949
 C        -0.752347         0.910098         0.507827
 C        -1.917279        -0.041866         1.007653
 C        -2.745858         0.831801         0.020495
 C        -1.507578         0.984030        -0.850501
 O        -1.671437         2.288709        -1.570561
 C        -2.511240         3.137216        -0.762480
 C        -2.634504         2.306865         0.509962
 C        -1.350770         2.273120         1.260200
 H         1.015833         0.460991        -0.300074
 H        -1.612773        -0.998774         0.631287
 H        -2.285700        -0.283302         2.018482
 H        -3.660072         0.378472        -0.415905
 H        -1.181874         0.304480        -1.572712
 H        -2.138932         4.177503        -0.558973
 H        -3.529865         3.317328        -1.245416
 H        -3.494411         2.759895         1.047455
 H        -0.807286         3.175252         0.923476
 H        -1.494102         2.301171         2.250569
