19
Iteration:  4121charge 0 multiplicity 1
 O         0.596069         0.646673         0.600477
 C        -0.782169         1.014047         0.448586
 C        -1.817480        -0.057117         0.904744
 C        -2.746204         0.835400         0.102216
 C        -1.585871         1.046323        -0.892564
 O        -1.643497         2.257047        -1.500598
 C        -2.526591         3.067458        -0.785176
 C        -2.641811         2.293414         0.541559
 C        -1.308440         2.312891         1.201453
 H         0.951260         1.465458         0.273896
 H        -1.678295        -1.104808         0.535956
 H        -2.150763        -0.023895         1.959334
 H        -3.817125         0.539758        -0.083449
 H        -1.425158         0.185681        -1.551842
 H        -2.235661         4.177258        -0.715711
 H        -3.566450         2.893917        -1.444046
 H        -3.480209         2.847151         1.097995
 H        -0.680450         3.137640         1.011774
 H        -1.069189         2.086609         2.343227
