19
Iteration:  4741charge 0 multiplicity 1
 O         0.605337         0.590394         0.529422
 C        -0.762749         1.004075         0.505789
 C        -1.898546         0.006656         0.982638
 C        -2.783704         0.824348         0.063339
 C        -1.572635         1.061537        -0.854309
 O        -1.561148         2.313803        -1.497434
 C        -2.612708         3.049623        -0.758808
 C        -2.684425         2.350934         0.486471
 C        -1.261016         2.260324         1.183943
 H         1.223751         1.197321         0.081275
 H        -1.712631        -1.021740         0.540154
 H        -2.008028        -0.087475         2.078532
 H        -3.594573         0.503083        -0.534490
 H        -1.219915         0.238062        -1.461129
 H        -2.256719         4.086806        -0.564043
 H        -3.619861         2.922426        -1.340635
 H        -3.384966         2.653308         1.332702
 H        -0.632261         3.170163         1.004794
 H        -1.408553         1.998070         2.316107
