19
Iteration:  1725
 O         0.689478         0.708931         0.418660
 C        -0.730090         0.942576         0.534233
 C        -1.908436        -0.025995         1.007020
 C        -2.781148         0.858450         0.031751
 C        -1.570285         1.051024        -0.857754
 O        -1.597348         2.300470        -1.462540
 C        -2.615162         3.069439        -0.790720
 C        -2.718414         2.313262         0.528916
 C        -1.299324         2.220899         1.214562
 H         1.197143         0.952605         1.245876
 H        -1.605579        -0.991348         0.618029
 H        -2.231741        -0.055213         2.077674
 H        -3.700294         0.330308        -0.455133
 H        -1.348545         0.188688        -1.504127
 H        -2.296073         4.162405        -0.825908
 H        -3.507800         2.973870        -1.343202
 H        -3.603664         2.750249         1.012347
 H        -0.610115         3.018014         0.860461
 H        -1.107093         2.183899         2.269145
