19
Iteration:  3497charge 0 multiplicity 1
 O         0.647126         0.705920         0.562267
 C        -0.755279         1.021900         0.512251
 C        -1.815172         0.029845         0.896619
 C        -2.791575         0.898325         0.069224
 C        -1.609644         0.981929        -0.965293
 O        -1.613854         2.209435        -1.522918
 C        -2.569036         3.074613        -0.698076
 C        -2.755695         2.295999         0.544559
 C        -1.268275         2.214262         1.231691
 H         1.065343         1.477226         0.120528
 H        -1.761234        -0.915853         0.333703
 H        -2.016800        -0.057496         2.035804
 H        -3.606417         0.255714        -0.126718
 H        -1.370012         0.074631        -1.600211
 H        -2.000383         4.083959        -0.633358
 H        -3.562592         3.117740        -1.179102
 H        -3.525141         2.710810         1.299014
 H        -0.490849         3.059316         0.974183
 H        -1.304712         2.160941         2.328131
