19
Iteration:  2531
 O         0.609438         0.603365         0.705477
 C        -0.748800         1.012539         0.455995
 C        -1.867577        -0.030960         0.961332
 C        -2.744910         0.843514         0.099869
 C        -1.496726         1.056509        -0.917968
 O        -1.654269         2.334043        -1.533791
 C        -2.767172         3.035483        -0.745475
 C        -2.667936         2.264684         0.508173
 C        -1.154597         2.316564         1.077795
 H         1.336118         1.144357         0.411777
 H        -1.726137        -1.039673         0.617315
 H        -2.077564        -0.144456         2.063029
 H        -3.728368         0.509904        -0.203178
 H        -1.241596         0.373044        -1.696675
 H        -2.334810         4.078492        -0.794028
 H        -3.752398         2.855942        -1.286822
 H        -3.397810         2.526755         1.267542
 H        -0.562348         3.270324         0.761084
 H        -1.241818         2.263174         2.113626
