19
Iteration:  3728
 O         0.647898         0.524610         0.645066
 C        -0.734539         1.010014         0.486532
 C        -1.841581         0.012639         0.943294
 C        -2.735385         0.779425         0.022082
 C        -1.545078         1.092911        -0.909033
 O        -1.671744         2.325533        -1.489734
 C        -2.664399         3.084929        -0.759109
 C        -2.733286         2.291185         0.592826
 C        -1.224010         2.316177         1.077136
 H         1.263867         1.266728         0.348728
 H        -1.799430        -1.078055         0.734210
 H        -2.120465         0.159806         2.043884
 H        -3.716790         0.441548        -0.271031
 H        -0.983342         0.247535        -1.388632
 H        -2.237125         4.162466        -0.789205
 H        -3.622480         2.853189        -1.285083
 H        -3.627777         2.617537         1.213548
 H        -0.799309         3.235365         0.603139
 H        -1.052848         2.257015         2.136815
