19
Iteration:  4145
 O         0.626670         0.612082         0.614653
 C        -0.752606         0.941101         0.521276
 C        -1.842605         0.019763         0.990367
 C        -2.750834         0.822959         0.015734
 C        -1.527933         1.068825        -0.847016
 O        -1.651715         2.312788        -1.584364
 C        -2.630306         3.114648        -0.743992
 C        -2.733733         2.263022         0.571004
 C        -1.225526         2.267284         1.157300
 H         1.074306         1.320956         0.052324
 H        -1.718217        -0.962971         0.527067
 H        -2.317712        -0.095632         1.987898
 H        -3.709392         0.408506        -0.350047
 H        -1.123050         0.278556        -1.417697
 H        -2.188107         4.148959        -0.908271
 H        -3.641359         2.984088        -1.399031
 H        -3.456283         2.586880         1.280324
 H        -0.658222         3.087592         0.786145
 H        -1.114186         2.288658         2.258838
