19
Iteration:  1656
 O         0.697069         0.684722         0.590539
 C        -0.702140         0.952119         0.488303
 C        -1.878367        -0.055084         0.937916
 C        -2.697357         0.882491         0.081808
 C        -1.565683         1.040066        -0.929661
 O        -1.674519         2.270553        -1.579818
 C        -2.585529         3.058297        -0.721711
 C        -2.687488         2.336433         0.535291
 C        -1.314370         2.278415         1.165182
 H         0.839364         0.696709         1.543469
 H        -1.803435        -1.007285         0.255195
 H        -2.220896        -0.133700         1.958495
 H        -3.750140         0.612994        -0.240725
 H        -1.521820         0.151414        -1.585497
 H        -2.202654         4.096765        -0.650754
 H        -3.590916         3.153050        -1.274369
 H        -3.626265         2.539828         1.207466
 H        -0.797874         3.179106         0.917942
 H        -1.321644         2.332056         2.278477
