19
Iteration:  4452
 O         0.598525         0.578804         0.638000
 C        -0.720479         0.991810         0.451847
 C        -1.892620        -0.025100         0.993884
 C        -2.722730         0.867565         0.051533
 C        -1.487519         1.043008        -0.915692
 O        -1.607011         2.307951        -1.533685
 C        -2.712906         3.069398        -0.728261
 C        -2.683421         2.310704         0.520909
 C        -1.255161         2.277194         1.174249
 H         1.149845         1.146676         0.021050
 H        -1.809020        -1.055112         0.544917
 H        -1.940641        -0.049250         2.097904
 H        -3.750654         0.464968        -0.319661
 H        -0.991131         0.235253        -1.632562
 H        -2.348434         4.087281        -0.837426
 H        -3.722889         3.287886        -1.338888
 H        -3.447567         2.697367         1.169460
 H        -0.821380         3.223461         0.963667
 H        -1.298655         2.171465         2.358771
