19
Iteration:  2251
 O         0.538122         0.673282         0.545754
 C        -0.751816         0.985427         0.441546
 C        -1.828477        -0.038920         1.058554
 C        -2.771007         0.855560         0.059696
 C        -1.513432         0.949447        -0.863268
 O        -1.575252         2.356528        -1.440396
 C        -2.656064         2.982530        -0.744100
 C        -2.655093         2.261209         0.483347
 C        -1.225451         2.340383         1.082499
 H         1.040491         1.430011         0.225878
 H        -1.937410        -1.054916         0.585555
 H        -1.858149        -0.066077         2.170697
 H        -3.721299         0.571742        -0.364685
 H        -1.288168         0.287120        -1.747672
 H        -2.607007         4.026703        -0.509121
 H        -3.693994         2.972202        -1.354144
 H        -3.305532         2.609962         1.244778
 H        -0.631117         3.180213         0.923608
 H        -1.399427         2.352862         2.195580
