19
Iteration:  2013charge 0 multiplicity 1
 O         0.593570         0.707772         0.522478
 C        -0.785318         0.995292         0.503551
 C        -1.821829        -0.022609         0.975909
 C        -2.771519         0.779415         0.090459
 C        -1.573625         1.054781        -0.871048
 O        -1.641209         2.269431        -1.580439
 C        -2.573574         3.119617        -0.794575
 C        -2.679719         2.253081         0.570593
 C        -1.254500         2.225447         1.220436
 H         1.133912         1.509963         0.629730
 H        -1.497776        -1.042492         0.558858
 H        -2.045981        -0.023173         2.020285
 H        -3.714817         0.429112        -0.285935
 H        -1.404667         0.256413        -1.646150
 H        -2.092677         4.151387        -0.556741
 H        -3.505729         3.166803        -1.340092
 H        -3.561555         2.657236         1.117856
 H        -0.606345         3.058428         1.067755
 H        -1.239147         2.154366         2.287568
