19
Iteration:  4561
 O         0.581704         0.661177         0.601083
 C        -0.756400         0.970647         0.508080
 C        -1.842763        -0.078709         0.937477
 C        -2.795428         0.821998         0.032096
 C        -1.576893         0.990554        -0.832588
 O        -1.640836         2.259570        -1.577583
 C        -2.508630         3.167463        -0.782221
 C        -2.772349         2.338047         0.528478
 C        -1.216060         2.284020         1.252999
 H         1.072782         1.263640         0.030095
 H        -1.492869        -0.939092         0.328204
 H        -1.789779        -0.180670         2.037705
 H        -3.870522         0.489128        -0.307986
 H        -1.115701         0.085487        -1.405452
 H        -2.248512         4.216412        -0.670391
 H        -3.486578         3.252587        -1.478293
 H        -3.539615         2.645823         1.241858
 H        -0.603947         3.128696         0.974397
 H        -1.177070         2.191719         2.417709
