19
Iteration:  4516
 O         0.647438         0.597747         0.641180
 C        -0.752401         1.012100         0.485676
 C        -1.814389        -0.036781         0.982725
 C        -2.818957         0.853186        -0.026663
 C        -1.600302         1.069430        -0.868219
 O        -1.634781         2.280796        -1.567827
 C        -2.635980         3.078929        -0.770692
 C        -2.681237         2.290063         0.558550
 C        -1.208882         2.251599         1.173330
 H         1.195127         1.406586         0.768054
 H        -1.731387        -1.073639         0.559278
 H        -2.126279         0.221812         1.980510
 H        -3.754637         0.421225        -0.619388
 H        -1.344451         0.194447        -1.547062
 H        -2.191137         4.078124        -0.669684
 H        -3.637568         3.470953        -1.186855
 H        -3.541971         2.516084         1.287336
 H        -0.639886         3.152631         0.821451
 H        -1.099325         2.143387         2.289061
