19
Iteration:  3156
 O         0.634860         0.602286         0.584027
 C        -0.712876         1.037260         0.413355
 C        -1.835834         0.022561         0.914936
 C        -2.797768         0.858894        -0.004801
 C        -1.547418         1.013968        -0.877119
 O        -1.624227         2.276979        -1.469708
 C        -2.659305         3.059723        -0.742975
 C        -2.744449         2.281781         0.638037
 C        -1.205983         2.297282         1.215036
 H         1.202484         1.173234         0.015842
 H        -1.686667        -0.989312         0.353596
 H        -1.987730         0.069950         2.002144
 H        -3.715870         0.411187        -0.427626
 H        -1.195747         0.312837        -1.569191
 H        -2.485675         4.189376        -0.875329
 H        -3.587614         2.961953        -1.247883
 H        -3.547535         2.397311         1.350871
 H        -0.865940         3.365390         0.920063
 H        -1.070540         1.997362         2.250625
