19
Iteration:  3651charge 0 multiplicity 1
 O         0.567306         0.701091         0.560838
 C        -0.799005         0.967049         0.514924
 C        -1.819788        -0.048865         1.015608
 C        -2.790914         0.677508         0.050494
 C        -1.547740         1.004554        -0.929769
 O        -1.661197         2.289835        -1.576246
 C        -2.513544         3.139662        -0.773227
 C        -2.659304         2.398747         0.599684
 C        -1.293254         2.245536         1.204288
 H         1.042656         1.521362         0.280635
 H        -1.520976        -1.055758         0.699234
 H        -1.946479        -0.233119         2.124224
 H        -3.705437         0.367127        -0.385852
 H        -1.151330         0.256961        -1.720235
 H        -2.152590         4.236284        -0.728545
 H        -3.433056         3.189545        -1.328528
 H        -3.527340         2.776444         1.228740
 H        -0.566709         3.095468         0.858709
 H        -1.274735         2.194166         2.308049
