19
Iteration:  4047
 O         0.546191         0.561847         0.675045
 C        -0.719521         1.014086         0.485313
 C        -1.846124        -0.063319         0.934710
 C        -2.691591         0.830472         0.114105
 C        -1.528447         1.092048        -0.895010
 O        -1.688560         2.343450        -1.549831
 C        -2.624016         3.030938        -0.798182
 C        -2.636807         2.326789         0.575848
 C        -1.273244         2.305874         1.070818
 H         1.217874         1.228072         0.306486
 H        -1.904219        -1.125620         0.593088
 H        -1.892559        -0.126582         2.064221
 H        -3.647688         0.316414        -0.241615
 H        -1.337191         0.378062        -1.670213
 H        -2.226679         4.067313        -0.684002
 H        -3.548008         3.013493        -1.241488
 H        -3.519495         2.502682         1.184637
 H        -0.644426         3.313238         0.962538
 H        -1.200963         2.321052         2.147141
