19
Iteration:  2812
 O         0.628967         0.717217         0.691438
 C        -0.731898         0.945736         0.492441
 C        -1.917147        -0.062609         0.900610
 C        -2.779917         0.840267         0.106868
 C        -1.470343         1.061342        -0.895369
 O        -1.678832         2.327061        -1.531085
 C        -2.649622         3.047822        -0.791696
 C        -2.691237         2.268944         0.569642
 C        -1.195184         2.281407         1.114634
 H         1.069699         0.568746        -0.185868
 H        -1.695684        -1.069119         0.479027
 H        -1.971329        -0.060885         1.959803
 H        -3.786492         0.508880        -0.086165
 H        -1.193600         0.218659        -1.564524
 H        -2.340399         4.085989        -0.657333
 H        -3.615742         3.170782        -1.342089
 H        -3.435448         2.706214         1.201681
 H        -0.677834         3.149782         0.695723
 H        -1.147404         2.237844         2.249217
