19
Iteration:    82charge 0 multiplicity 1
 O         0.614003         0.638551         0.471726
 C        -0.776326         0.973543         0.507741
 C        -1.844817         0.018015         0.966262
 C        -2.734945         0.793138         0.050234
 C        -1.532378         1.024203        -0.827994
 O        -1.607092         2.334794        -1.472333
 C        -2.598512         3.123110        -0.811533
 C        -2.690831         2.330594         0.477669
 C        -1.264230         2.222369         1.206415
 H         0.918468         0.737287         1.379830
 H        -1.812552        -1.017712         0.559136
 H        -2.109395         0.114213         2.066711
 H        -3.699942         0.377974        -0.339794
 H        -1.341343         0.198828        -1.563915
 H        -2.282950         4.187634        -0.607100
 H        -3.562040         3.016437        -1.459613
 H        -3.634168         2.565744         1.021543
 H        -0.707661         3.165636         1.093332
 H        -1.384146         2.080597         2.300362
