19
Iteration:  1171
 O         0.580049         0.702319         0.726389
 C        -0.759439         0.967408         0.498632
 C        -1.859798        -0.025069         0.910171
 C        -2.777646         0.782206         0.037327
 C        -1.564608         1.042323        -0.844281
 O        -1.591399         2.387779        -1.498855
 C        -2.634718         3.051810        -0.794831
 C        -2.694912         2.281863         0.516394
 C        -1.162595         2.256761         1.099663
 H         0.830823         0.085697         0.023428
 H        -1.831025        -1.089795         0.586056
 H        -2.032930         0.023576         2.006221
 H        -3.757979         0.588512        -0.452130
 H        -1.133324         0.516405        -1.740304
 H        -2.590996         4.146493        -0.684082
 H        -3.677384         2.927556        -1.229649
 H        -3.395760         2.651470         1.248890
 H        -0.482672         2.935392         0.661399
 H        -1.115443         2.309372         2.145692
