19
Iteration:  2424charge 0 multiplicity 1
 O         0.625507         0.658962         0.663307
 C        -0.770576         0.977478         0.470806
 C        -1.792874        -0.009278         0.940224
 C        -2.768432         0.802137         0.053917
 C        -1.566340         0.970559        -0.944364
 O        -1.731891         2.264171        -1.614835
 C        -2.571156         3.114710        -0.713931
 C        -2.669967         2.270760         0.572007
 C        -1.248207         2.341099         1.220509
 H         1.014894         1.376380         0.108220
 H        -1.545749        -0.918527         0.488810
 H        -1.999338        -0.088555         2.002584
 H        -3.785591         0.484973        -0.076423
 H        -1.077959         0.239496        -1.662531
 H        -2.097121         4.071183        -0.600427
 H        -3.543053         3.076901        -1.250850
 H        -3.627196         2.577303         1.196005
 H        -0.726807         3.251377         0.795578
 H        -1.078702         2.361733         2.308547
