19
Iteration:  3523charge 0 multiplicity 1
 O         0.558004         0.678729         0.559434
 C        -0.793468         0.999146         0.486251
 C        -1.804861        -0.190677         0.983692
 C        -2.776672         0.807245         0.070853
 C        -1.540834         1.083128        -0.896218
 O        -1.646071         2.290115        -1.593442
 C        -2.580014         3.113846        -0.766266
 C        -2.646663         2.328009         0.591718
 C        -1.258664         2.288057         1.196695
 H         1.038947         1.519876         0.514440
 H        -1.574799        -1.150365         0.582840
 H        -1.983409        -0.030295         1.984669
 H        -3.693890         0.334942        -0.338940
 H        -1.312906         0.207505        -1.555763
 H        -2.153159         4.091547        -0.755470
 H        -3.683703         3.078713        -1.162586
 H        -3.306412         2.828851         1.300123
 H        -0.664311         3.063355         0.921408
 H        -1.261369         2.223852         2.323012
