19
Iteration:  4100
 O         0.605808         0.661747         0.560184
 C        -0.761293         1.040576         0.520957
 C        -1.870240        -0.077872         1.015528
 C        -2.831946         0.842658         0.069115
 C        -1.540449         0.985083        -0.880266
 O        -1.586144         2.277723        -1.607953
 C        -2.594134         3.100421        -0.790211
 C        -2.687782         2.337289         0.584520
 C        -1.255807         2.252701         1.163904
 H         1.073933         1.554059         0.438818
 H        -1.702721        -1.047357         0.477289
 H        -1.710207        -0.234830         2.098437
 H        -3.747706         0.417420        -0.463236
 H        -1.406880         0.147760        -1.555927
 H        -2.212559         4.076248        -0.339052
 H        -3.646742         3.277947        -1.450245
 H        -3.476050         2.699159         1.324710
 H        -0.589633         3.019600         0.980596
 H        -1.212591         2.103386         2.320329
