19
Iteration:  1666charge 0 multiplicity 1
 O         0.651813         0.708067         0.556828
 C        -0.781663         0.980610         0.468162
 C        -1.853738        -0.046086         0.909465
 C        -2.763468         0.844026         0.128591
 C        -1.544042         1.028935        -0.866487
 O        -1.614138         2.266756        -1.559263
 C        -2.605432         3.120669        -0.808759
 C        -2.694580         2.280307         0.551377
 C        -1.284069         2.268783         1.168143
 H         0.942491         0.749674         1.454215
 H        -1.715339        -1.141192         0.628895
 H        -1.974181        -0.137430         1.987619
 H        -3.693937         0.436812        -0.247826
 H        -1.362895         0.314980        -1.671764
 H        -2.076591         4.025692        -0.526184
 H        -3.670817         3.334238        -1.311430
 H        -3.468770         2.820097         1.189448
 H        -0.728959         3.099288         0.951664
 H        -1.342743         1.993102         2.242968
