19
Iteration:  1071
 O         0.564559         0.964741         0.626731
 C        -0.827759         0.939843         0.446942
 C        -1.854628        -0.096650         0.910097
 C        -2.772755         0.831691         0.035943
 C        -1.606514         0.930256        -0.883517
 O        -1.617358         2.206863        -1.587246
 C        -2.444922         3.153095        -0.714638
 C        -2.692023         2.350803         0.521746
 C        -1.254546         2.193903         1.237088
 H         0.895764         0.067471         0.310454
 H        -1.909342        -1.027237         0.356531
 H        -1.956846        -0.165975         2.083510
 H        -3.763484         0.409347        -0.204510
 H        -1.363337         0.043807        -1.481699
 H        -1.747073         3.925000        -0.441059
 H        -3.285552         3.502252        -1.200076
 H        -3.431897         2.597624         1.233701
 H        -0.657682         3.061305         1.039541
 H        -1.316096         2.035110         2.298051
