19
Iteration:  2826
 O         0.600704         0.727162         0.710115
 C        -0.783592         0.956563         0.538153
 C        -1.770858        -0.065192         0.973693
 C        -2.756841         0.795450        -0.005882
 C        -1.586842         1.035687        -0.851425
 O        -1.688857         2.330456        -1.558867
 C        -2.675392         3.071566        -0.729507
 C        -2.592496         2.387660         0.528218
 C        -1.228833         2.252318         1.078066
 H         0.978131         0.385366        -0.131902
 H        -1.635647        -1.032232         0.493052
 H        -2.253067        -0.389447         2.013058
 H        -3.596814         0.447607        -0.606713
 H        -1.360542         0.436432        -1.642102
 H        -2.237496         4.150161        -0.671833
 H        -3.712850         2.829013        -1.168031
 H        -3.259188         2.657424         1.296617
 H        -0.388800         2.968327         0.768770
 H        -1.202716         2.243047         2.135729
