19
Iteration:  2028charge 0 multiplicity 1
 O         0.620877         0.660437         0.646373
 C        -0.710280         0.943460         0.483640
 C        -1.763331        -0.104964         0.973695
 C        -2.721096         0.874986         0.052521
 C        -1.577326         1.024857        -0.898081
 O        -1.765043         2.328575        -1.640386
 C        -2.594279         3.127072        -0.876843
 C        -2.680651         2.284985         0.612584
 C        -1.253695         2.239842         1.242953
 H         0.959521         1.548327         0.688247
 H        -1.876417        -1.144311         0.613932
 H        -1.865031        -0.133700         2.083248
 H        -3.705042         0.515862        -0.325114
 H        -1.312828         0.165200        -1.489898
 H        -2.107663         4.069363        -0.697539
 H        -3.572074         3.598980        -1.451013
 H        -3.365315         2.460361         1.525559
 H        -0.773613         3.184521         0.843486
 H        -1.283867         2.042199         2.296641
