19
Iteration:  2018charge 0 multiplicity 1
 O         0.575770         0.719905         0.554732
 C        -0.761318         0.936395         0.487186
 C        -1.792441        -0.024451         0.974469
 C        -2.743690         0.802045         0.069058
 C        -1.593255         1.038920        -0.843922
 O        -1.668622         2.294567        -1.607435
 C        -2.601446         3.155053        -0.854115
 C        -2.625381         2.220557         0.620632
 C        -1.271961         2.219022         1.236290
 H         1.211078         1.430977         0.658766
 H        -1.588875        -0.996210         0.588676
 H        -1.985057        -0.031851         2.086192
 H        -3.709168         0.482061        -0.387209
 H        -1.513706         0.279769        -1.591913
 H        -2.091677         4.005563        -0.523853
 H        -3.568973         3.334102        -1.523060
 H        -3.513312         2.593406         1.156946
 H        -0.552291         3.085242         0.991831
 H        -1.346325         2.228376         2.381567
