19
Iteration:  3193charge 0 multiplicity 1
 O         0.626059         0.695004         0.509908
 C        -0.756566         0.932220         0.462169
 C        -1.842906        -0.097506         1.024424
 C        -2.773080         0.740811         0.056297
 C        -1.522294         1.021831        -0.851522
 O        -1.635206         2.308067        -1.541385
 C        -2.597038         3.242538        -0.774843
 C        -2.740077         2.327202         0.612587
 C        -1.278466         2.248438         1.178649
 H         1.095350         1.430691         0.154709
 H        -1.733565        -1.045432         0.582111
 H        -1.749168        -0.315890         2.090000
 H        -3.765714         0.444236        -0.278499
 H        -1.191804         0.233101        -1.653771
 H        -2.155666         4.153071        -0.683580
 H        -3.472340         3.111835        -1.493451
 H        -3.706860         2.410714         1.241672
 H        -0.743525         3.176949         0.958314
 H        -1.122623         2.182928         2.367059
