19
Iteration:  2690charge 0 multiplicity 1
 O         0.648316         0.536386         0.699585
 C        -0.706121         1.049786         0.528749
 C        -1.901829         0.043260         0.938184
 C        -2.692620         0.795558         0.014015
 C        -1.521737         1.031485        -0.919097
 O        -1.750254         2.277724        -1.520506
 C        -2.709935         3.091032        -0.785686
 C        -2.694454         2.298364         0.529995
 C        -1.140957         2.353018         1.114728
 H         1.303946         1.232631         0.598537
 H        -1.692167        -0.937757         0.457165
 H        -2.249793        -0.150842         1.890867
 H        -3.714474         0.416139        -0.319550
 H        -1.219825         0.304264        -1.742672
 H        -2.330606         4.057548        -0.552607
 H        -3.731343         3.046496        -1.298785
 H        -3.437866         2.418000         1.325627
 H        -0.689394         3.232646         0.744149
 H        -1.012799         2.219601         2.257996
