19
Iteration:  2833charge 0 multiplicity 1
 O         0.596561         0.723642         0.704748
 C        -0.765416         0.958319         0.527842
 C        -1.810458        -0.115521         0.991833
 C        -2.726876         0.802382        -0.044490
 C        -1.624547         1.053126        -0.909683
 O        -1.677926         2.292851        -1.566260
 C        -2.662369         3.128088        -0.747942
 C        -2.627864         2.352582         0.583375
 C        -1.190783         2.331808         1.141881
 H         0.963747         0.216229         0.004957
 H        -1.605522        -1.070214         0.453605
 H        -1.931155        -0.213589         2.024378
 H        -3.595615         0.357399        -0.528183
 H        -1.363683         0.262910        -1.730928
 H        -2.512026         4.169930        -0.818813
 H        -3.590247         2.970355        -1.256731
 H        -3.384095         2.510955         1.371349
 H        -0.452352         3.025669         0.752834
 H        -1.145408         2.204502         2.279680
