19
Iteration:  3548
 O         0.689957         0.549599         0.606256
 C        -0.685619         0.996103         0.499993
 C        -1.889670        -0.008386         0.989311
 C        -2.784618         0.850560         0.013011
 C        -1.513018         1.064014        -0.861094
 O        -1.720119         2.335308        -1.494789
 C        -2.668345         3.099758        -0.792136
 C        -2.689575         2.206558         0.534302
 C        -1.223998         2.315714         1.119315
 H         1.200864         1.348844         0.576131
 H        -1.637399        -0.982473         0.477566
 H        -2.201140         0.002802         2.035005
 H        -3.746863         0.384944        -0.354690
 H        -1.311500         0.321664        -1.564079
 H        -2.200108         4.059382        -0.563233
 H        -3.640585         3.276308        -1.297822
 H        -3.455048         2.474660         1.227270
 H        -0.756820         3.246333         0.752129
 H        -1.126072         2.229073         2.170794
