19
Iteration:  3419
 O         0.600316         0.573157         0.618114
 C        -0.740478         0.919937         0.539445
 C        -1.819528         0.018295         0.916023
 C        -2.738775         0.767942         0.161858
 C        -1.592288         1.121548        -0.900983
 O        -1.603937         2.396475        -1.576352
 C        -2.775352         3.060049        -0.808761
 C        -2.663320         2.269299         0.537146
 C        -1.168765         2.256254         1.140127
 H         0.880981         1.549682         0.534068
 H        -1.603491        -1.020637         0.503084
 H        -1.944332        -0.312885         1.982299
 H        -3.717122         0.379691         0.001486
 H        -1.219362         0.471886        -1.646377
 H        -2.531550         4.216722        -0.606202
 H        -3.699258         2.957480        -1.434894
 H        -3.311996         2.691992         1.309018
 H        -0.450168         3.108050         0.769860
 H        -1.179376         2.297326         2.174252
