19
Iteration:   511charge 0 multiplicity 1
 O         0.637810         0.527194         0.773027
 C        -0.677817         0.978525         0.494530
 C        -1.877328         0.019067         0.944394
 C        -2.729044         0.894614         0.006314
 C        -1.523683         1.040781        -0.941743
 O        -1.675763         2.405131        -1.508748
 C        -2.729250         2.950949        -0.794764
 C        -2.692271         2.329956         0.579521
 C        -1.140083         2.299289         1.061147
 H         1.222374         1.282449         0.647731
 H        -1.873459        -1.019077         0.499073
 H        -2.260146        -0.203882         1.924452
 H        -3.753839         0.667307        -0.367394
 H        -1.551574         0.222993        -1.670441
 H        -2.633713         4.111750        -0.865569
 H        -3.731171         2.735476        -1.306184
 H        -3.553156         2.399761         1.346302
 H        -0.729047         3.236341         0.512510
 H        -0.904523         2.308492         2.139714
