19
Iteration:  4120
 O         0.594103         0.649255         0.600174
 C        -0.786065         1.000965         0.448279
 C        -1.807840        -0.045968         0.904209
 C        -2.748784         0.833446         0.103374
 C        -1.594883         1.051642        -0.888068
 O        -1.640752         2.259338        -1.504628
 C        -2.524632         3.069495        -0.785498
 C        -2.649928         2.291065         0.542250
 C        -1.306090         2.303945         1.203757
 H         0.970017         1.482008         0.277918
 H        -1.670798        -1.094208         0.530548
 H        -2.167212        -0.037007         1.938709
 H        -3.810073         0.532707        -0.068652
 H        -1.402534         0.173889        -1.554047
 H        -2.214326         4.156568        -0.773349
 H        -3.526954         2.891465        -1.423894
 H        -3.494949         2.852037         1.115114
 H        -0.669779         3.163737         1.001887
 H        -1.062732         2.099488         2.362475
