19
Iteration:  2522charge 0 multiplicity 1
 O         0.647830         0.568018         0.671602
 C        -0.681837         1.028998         0.482809
 C        -1.865678        -0.069831         0.988795
 C        -2.809654         0.811162         0.072162
 C        -1.550826         1.066920        -0.839128
 O        -1.628157         2.381106        -1.534234
 C        -2.694567         3.072328        -0.810168
 C        -2.658660         2.244864         0.540148
 C        -1.218121         2.314831         1.054908
 H         1.196309         1.330887         0.455314
 H        -1.587014        -0.995316         0.739082
 H        -2.023102         0.001028         2.038740
 H        -3.714084         0.515155        -0.365978
 H        -1.558812         0.188981        -1.519887
 H        -2.603757         4.173867        -0.834309
 H        -3.745724         2.896325        -1.367264
 H        -3.480457         2.367230         1.299145
 H        -0.874135         3.315010         0.680815
 H        -0.982981         2.204992         2.079285
