19
Iteration:   433charge 0 multiplicity 1
 O         0.559190         0.800577         0.566134
 C        -0.834658         0.989974         0.558578
 C        -1.846938        -0.115598         1.006966
 C        -2.751749         0.827009         0.055110
 C        -1.548579         1.054333        -0.879591
 O        -1.700267         2.142737        -1.673615
 C        -2.418313         3.125459        -0.742172
 C        -2.649842         2.382438         0.525542
 C        -1.302653         2.207428         1.298882
 H         0.870481         1.383274        -0.118962
 H        -1.721223        -1.032134         0.359218
 H        -1.980167        -0.110373         1.998059
 H        -3.552232         0.474349        -0.501591
 H        -1.322676         0.199149        -1.411410
 H        -1.891634         4.144551        -0.460639
 H        -3.303545         3.354474        -1.452376
 H        -3.662281         2.488962         1.066723
 H        -0.579132         3.129625         1.287845
 H        -1.188438         2.037403         2.347186
