19
Iteration:  1134
 O         0.646670         0.536869         0.695616
 C        -0.716754         1.074715         0.490466
 C        -1.850444        -0.011580         0.941361
 C        -2.765497         0.818543         0.008523
 C        -1.514188         1.091250        -0.884948
 O        -1.610654         2.391082        -1.528211
 C        -2.698667         3.013614        -0.771725
 C        -2.682563         2.266293         0.533806
 C        -1.264736         2.364820         1.163712
 H         0.634744        -0.239321         0.067350
 H        -1.826276        -1.019565         0.638538
 H        -2.020197         0.013151         2.052887
 H        -3.646418         0.406218        -0.486561
 H        -1.113138         0.293794        -1.465824
 H        -2.415966         4.069400        -0.702392
 H        -3.725807         2.825425        -1.360949
 H        -3.579568         2.589303         1.063238
 H        -0.676921         3.257257         0.688620
 H        -1.102710         2.370470         2.332524
