19
Iteration:  2388
 O         0.649076         0.541566         0.546367
 C        -0.764144         0.948079         0.495650
 C        -1.783726         0.040062         0.987586
 C        -2.793709         0.829169         0.054692
 C        -1.515772         1.027893        -0.900064
 O        -1.627263         2.366531        -1.495175
 C        -2.697352         3.030461        -0.834576
 C        -2.749347         2.331994         0.573480
 C        -1.204998         2.299801         1.208151
 H         1.078225         1.433047         0.695728
 H        -1.660979        -0.986344         0.720330
 H        -1.867551         0.054624         2.077222
 H        -3.768537         0.332373        -0.269953
 H        -0.959659         0.354003        -1.509411
 H        -2.714622         4.181247        -0.997650
 H        -3.795290         2.896036        -1.335761
 H        -3.607959         2.431307         1.273735
 H        -0.737770         3.129033         0.538948
 H        -1.019655         2.369047         2.242942
