19
Iteration:  1466charge 0 multiplicity 1
 O         0.627592         0.557041         0.680811
 C        -0.761983         0.917448         0.502783
 C        -1.816450        -0.057753         0.940550
 C        -2.774668         0.853614         0.080972
 C        -1.560968         1.068901        -0.858839
 O        -1.596551         2.388886        -1.484402
 C        -2.707911         3.066069        -0.857028
 C        -2.752402         2.302391         0.505484
 C        -1.181481         2.299572         1.101816
 H         1.326869         1.220546         0.483792
 H        -1.507706        -0.970420         0.384883
 H        -2.287215        -0.067590         2.035771
 H        -3.784321         0.528173        -0.197078
 H        -1.173312         0.301488        -1.610270
 H        -2.408814         4.083113        -0.669670
 H        -3.551655         2.969060        -1.506843
 H        -3.476059         2.695693         1.210560
 H        -0.650774         3.179620         0.743239
 H        -1.129418         2.335999         2.272631
