19
Iteration:  2416charge 0 multiplicity 1
 O         0.606301         0.628585         0.630304
 C        -0.743242         1.019011         0.494550
 C        -1.836288        -0.000239         0.972854
 C        -2.724071         0.827531         0.093776
 C        -1.548060         0.947481        -0.953101
 O        -1.719483         2.318155        -1.580802
 C        -2.609634         3.066875        -0.755416
 C        -2.626887         2.266649         0.560904
 C        -1.273940         2.367052         1.148100
 H         1.130387         1.331220         0.214238
 H        -1.743979        -1.044979         0.409397
 H        -2.017698        -0.228359         2.033300
 H        -3.679413         0.407023        -0.162587
 H        -1.065221         0.151621        -1.604659
 H        -2.163137         4.015225        -0.591160
 H        -3.579878         3.186714        -1.130606
 H        -3.410602         2.330146         1.318724
 H        -0.811840         3.278463         0.937891
 H        -1.320352         2.310001         2.315511
