19
Iteration:  4772charge 0 multiplicity 1
 O         0.566877         0.580726         0.672390
 C        -0.780654         0.979693         0.476250
 C        -1.886526        -0.055952         0.960379
 C        -2.763202         0.812571         0.112008
 C        -1.572181         1.100205        -0.919302
 O        -1.608270         2.364555        -1.545545
 C        -2.606113         3.041444        -0.756691
 C        -2.688053         2.293657         0.552262
 C        -1.190452         2.264242         1.079435
 H         1.148384         1.310414         0.391775
 H        -1.901047        -1.017541         0.419222
 H        -1.931882        -0.019572         2.040798
 H        -3.617031         0.548542        -0.423043
 H        -1.145017         0.458932        -1.655681
 H        -2.391210         4.041805        -0.580820
 H        -3.551271         3.086695        -1.179372
 H        -3.366828         2.665676         1.327181
 H        -0.538140         3.014278         0.612286
 H        -1.017008         2.368075         2.243101
