19
Iteration:  3813
 O         0.591010         0.657963         0.586752
 C        -0.804984         1.001499         0.517523
 C        -1.830476        -0.054584         0.971707
 C        -2.779494         0.759756         0.080953
 C        -1.537876         1.084666        -0.917299
 O        -1.637634         2.333784        -1.592285
 C        -2.531326         3.069134        -0.829233
 C        -2.746470         2.243375         0.597724
 C        -1.249489         2.269303         1.241932
 H         1.023964         1.397139         0.187081
 H        -1.927907        -1.079992         0.690951
 H        -1.843135        -0.138836         2.073675
 H        -3.659195         0.333592        -0.216066
 H        -1.251242         0.277048        -1.617404
 H        -1.880399         3.933577        -0.618757
 H        -3.501303         3.343661        -1.338543
 H        -3.528263         2.852544         1.095410
 H        -0.758104         3.227713         0.792270
 H        -0.986630         2.320573         2.353838
