19
Iteration:  4858
 O         0.639798         0.632674         0.573110
 C        -0.777200         0.987794         0.477325
 C        -1.903569        -0.020275         0.931164
 C        -2.845350         0.825176         0.140057
 C        -1.556456         0.999916        -0.818677
 O        -1.552148         2.317872        -1.532311
 C        -2.540682         3.086008        -0.773936
 C        -2.709448         2.284152         0.593643
 C        -1.294826         2.275614         1.118456
 H         1.034728         1.370724         0.019271
 H        -1.575139        -0.970741         0.409897
 H        -1.941958        -0.026260         2.037966
 H        -3.714992         0.536003        -0.419282
 H        -1.363200         0.174603        -1.533207
 H        -2.093419         4.067097        -0.566515
 H        -3.488967         3.245891        -1.429867
 H        -3.484809         2.782070         1.133215
 H        -0.747277         3.049088         0.724181
 H        -1.311938         2.115164         2.235052
