19
Iteration:  2205charge 0 multiplicity 1
 O         0.658010         0.533502         0.644674
 C        -0.738528         1.043005         0.505953
 C        -1.800448        -0.095848         0.975045
 C        -2.744823         0.794196         0.015579
 C        -1.537973         1.089784        -0.893123
 O        -1.742713         2.254787        -1.559537
 C        -2.675129         3.074069        -0.755589
 C        -2.611089         2.385519         0.544327
 C        -1.299176         2.352325         1.134134
 H         1.225874         1.288040         0.523346
 H        -1.353788        -0.998991         0.617977
 H        -2.056136        -0.176991         2.108164
 H        -3.752192         0.504710        -0.344226
 H        -1.145505         0.331753        -1.596712
 H        -2.332516         4.080611        -0.785180
 H        -3.771438         3.181953        -1.099578
 H        -3.473373         2.713899         1.172690
 H        -0.683157         3.182641         0.816101
 H        -1.234819         2.372797         2.182924
