19
Iteration:  3944charge 0 multiplicity 1
 O         0.575691         0.678007         0.580999
 C        -0.773129         1.008867         0.466230
 C        -1.791242        -0.061744         0.947206
 C        -2.785433         0.853911         0.028228
 C        -1.613119         1.040682        -0.805790
 O        -1.612742         2.246836        -1.607056
 C        -2.579301         3.111914        -0.799394
 C        -2.668514         2.312445         0.608450
 C        -1.239546         2.215173         1.243674
 H         0.991453         1.469045         0.248066
 H        -1.681030        -1.050008         0.469397
 H        -2.097619        -0.089419         1.993863
 H        -3.637904         0.462683        -0.455946
 H        -1.322901         0.161738        -1.414842
 H        -2.231365         4.120424        -0.704463
 H        -3.441574         3.141413        -1.395649
 H        -3.416216         2.702572         1.352868
 H        -0.555355         3.052535         0.942351
 H        -1.427140         2.269883         2.391161
