19
Iteration:   943
 O         0.571891         0.674356         0.513727
 C        -0.775227         1.000696         0.549662
 C        -1.853345        -0.085911         1.032019
 C        -2.688639         0.753963         0.063252
 C        -1.493521         1.042408        -0.924903
 O        -1.688074         2.321268        -1.714822
 C        -2.525300         3.128486        -0.800991
 C        -2.654086         2.332535         0.611511
 C        -1.354315         2.245543         1.249543
 H         1.120010         1.023628         1.213105
 H        -1.768419        -1.117375         0.666756
 H        -2.018867        -0.092457         2.046685
 H        -3.676883         0.609747        -0.399076
 H        -1.284393         0.097101        -1.463811
 H        -2.065635         4.111151        -0.492235
 H        -3.515231         3.462904        -1.313455
 H        -3.479493         2.601827         1.190859
 H        -0.708111         3.181350         1.315481
 H        -1.427863         1.996496         2.350730
