19
Iteration:  3574
 O         0.496472         0.571630         0.674171
 C        -0.775192         0.958189         0.452205
 C        -1.749414         0.017871         0.960621
 C        -2.733731         0.805808        -0.007314
 C        -1.528514         1.053228        -0.972579
 O        -1.626265         2.369139        -1.560560
 C        -2.699604         3.002241        -0.728827
 C        -2.635090         2.331283         0.657227
 C        -1.216450         2.321583         1.153156
 H         1.044178         1.248863         0.305245
 H        -1.503364        -0.958770         0.534406
 H        -2.032797         0.022083         2.096919
 H        -3.668564         0.365243        -0.167242
 H        -1.236482         0.245268        -1.743241
 H        -2.519578         4.128121        -0.738545
 H        -3.661840         2.866330        -1.141209
 H        -3.599491         2.579102         1.243240
 H        -0.572149         3.210101         0.665088
 H        -0.935486         2.175025         2.229913
