19
Iteration:  3760
 O         0.605057         0.626138         0.601603
 C        -0.799507         1.011689         0.533354
 C        -1.850094        -0.052611         0.961316
 C        -2.782659         0.769686         0.150200
 C        -1.586862         1.062389        -0.875897
 O        -1.585015         2.342420        -1.602540
 C        -2.589322         3.070220        -0.740817
 C        -2.666625         2.293425         0.548733
 C        -1.252588         2.255290         1.076912
 H         1.100165         1.376634         0.306687
 H        -1.695003        -1.022437         0.424420
 H        -2.007257        -0.123597         2.050878
 H        -3.738473         0.503203        -0.167125
 H        -0.926961         0.368556        -1.445194
 H        -2.471209         4.199845        -0.699837
 H        -3.659734         3.010684        -1.234655
 H        -3.469304         2.789441         1.158624
 H        -0.677782         3.190902         0.986741
 H        -1.258363         2.101691         2.062263
