19
Iteration:  3830charge 0 multiplicity 1
 O         0.572813         0.630312         0.616389
 C        -0.780728         0.972899         0.496282
 C        -1.783647        -0.042487         0.996755
 C        -2.751938         0.825692         0.024153
 C        -1.551668         1.023236        -0.892851
 O        -1.635017         2.300621        -1.582764
 C        -2.576686         3.122312        -0.702491
 C        -2.699393         2.302804         0.535344
 C        -1.257184         2.288002         1.141657
 H         1.172224         1.272741         0.270480
 H        -1.368584        -0.966529         0.532052
 H        -2.150147        -0.050755         2.028453
 H        -3.844760         0.479789        -0.269208
 H        -1.423559         0.111072        -1.507654
 H        -2.317554         4.188260        -0.585926
 H        -3.497006         3.163989        -1.312739
 H        -3.527270         2.419423         1.220204
 H        -0.675002         3.132374         0.908151
 H        -1.373108         2.260279         2.265193
