19
Iteration:  1803
 O         0.595678         0.686291         0.553364
 C        -0.732565         0.986087         0.507417
 C        -1.828764         0.005093         0.941826
 C        -2.755130         0.825023         0.036964
 C        -1.541614         1.048330        -0.862760
 O        -1.692750         2.376588        -1.622382
 C        -2.615965         3.026348        -0.786568
 C        -2.699413         2.284622         0.612116
 C        -1.200694         2.232228         1.181776
 H         0.819497         0.183255         1.401389
 H        -1.685373        -1.006838         0.764276
 H        -1.933188         0.119173         2.082116
 H        -3.648137         0.268277        -0.330398
 H        -1.127908         0.200475        -1.477497
 H        -2.271674         4.137080        -0.737008
 H        -3.703626         2.993769        -1.269197
 H        -3.398074         2.664449         1.297450
 H        -0.566989         3.109943         0.841946
 H        -1.258719         2.256259         2.224821
