19
Iteration:  3443charge 0 multiplicity 1
 O         0.658300         0.531918         0.617107
 C        -0.736959         1.006877         0.460664
 C        -1.799929        -0.013700         0.899106
 C        -2.718201         0.883277        -0.016047
 C        -1.564660         1.013089        -0.885805
 O        -1.667704         2.313731        -1.475078
 C        -2.652362         3.042936        -0.719365
 C        -2.714153         2.329805         0.643409
 C        -1.315648         2.332992         1.105102
 H         1.128985         1.247745         0.170525
 H        -1.524884        -1.003809         0.808481
 H        -1.805376         0.079406         2.014228
 H        -3.611403         0.626266        -0.541523
 H        -1.208045         0.235413        -1.627194
 H        -2.426008         4.170908        -0.922684
 H        -3.694678         2.785566        -1.161677
 H        -3.543174         2.563977         1.402057
 H        -0.724083         3.147436         0.822637
 H        -1.234632         2.286275         2.195426
