19
Iteration:  2506
 O         0.627840         0.594447         0.584918
 C        -0.789301         0.939128         0.498378
 C        -1.783334         0.035485         0.987314
 C        -2.735249         0.798687         0.053000
 C        -1.551107         1.024091        -0.916137
 O        -1.606404         2.342244        -1.490333
 C        -2.682410         3.010845        -0.788932
 C        -2.768742         2.327228         0.579447
 C        -1.234928         2.332948         1.123556
 H         1.200774         1.339529         0.520141
 H        -1.719616        -1.118294         0.667491
 H        -2.062214        -0.048072         2.083403
 H        -3.701013         0.289100        -0.286782
 H        -1.160921         0.395315        -1.702645
 H        -2.244709         4.055864        -0.681792
 H        -3.567539         2.942042        -1.371187
 H        -3.489851         2.778111         1.242267
 H        -0.587933         3.071958         0.606594
 H        -1.285501         2.500237         2.245287
