19
Iteration:  3253
 O         0.666434         0.548343         0.591404
 C        -0.692124         0.929738         0.567964
 C        -1.796518        -0.001376         0.934360
 C        -2.728773         0.819358         0.027864
 C        -1.503761         1.094710        -0.822221
 O        -1.784680         2.330314        -1.546040
 C        -2.679881         3.081562        -0.749344
 C        -2.707750         2.335906         0.519759
 C        -1.242104         2.275597         1.141890
 H         1.235173         1.337101         0.421832
 H        -1.639089        -0.990594         0.306994
 H        -1.884195        -0.330445         2.003115
 H        -3.703620         0.514390        -0.414410
 H        -1.268214         0.327973        -1.526715
 H        -2.429416         4.239634        -0.707147
 H        -3.684697         3.168868        -1.268648
 H        -3.430123         2.743726         1.190872
 H        -0.521594         3.117148         0.941634
 H        -1.389158         2.199812         2.159839
