19
Iteration:   277
 O         0.557779         0.828929         0.398488
 C        -0.792658         1.026637         0.565809
 C        -1.912066        -0.081723         0.958204
 C        -2.733459         0.836546         0.055658
 C        -1.508088         0.968561        -0.800594
 O        -1.707081         2.165949        -1.605086
 C        -2.422450         3.106644        -0.765334
 C        -2.636476         2.304104         0.532864
 C        -1.326528         2.273966         1.268501
 H         1.039660         1.120349         1.192575
 H        -1.573238        -0.963841         0.525532
 H        -2.313630        -0.350492         1.928703
 H        -3.779872         0.576066        -0.338073
 H        -1.172930        -0.024486        -1.258106
 H        -1.735835         3.958639        -0.485074
 H        -3.215837         3.730773        -1.347231
 H        -3.618599         2.546453         1.089410
 H        -0.574025         3.074091         1.121094
 H        -1.506298         2.015886         2.356336
