19
Iteration:   910
 O         0.639633         0.872674         0.435779
 C        -0.767712         1.053363         0.502029
 C        -1.907125        -0.058133         0.900614
 C        -2.826188         0.815186         0.063569
 C        -1.576967         0.895081        -0.821449
 O        -1.568209         2.194463        -1.550723
 C        -2.451444         3.102399        -0.714181
 C        -2.733913         2.302432         0.603969
 C        -1.352640         2.267515         1.221238
 H         0.958004         0.330363         1.161780
 H        -1.688665        -0.990466         0.410526
 H        -2.118391        -0.174850         1.892814
 H        -3.734643         0.720862        -0.544625
 H        -1.431502         0.051550        -1.507640
 H        -1.743201         3.912923        -0.476900
 H        -3.212790         3.520371        -1.435740
 H        -3.445402         2.663488         1.269225
 H        -0.770706         3.157169         0.922051
 H        -1.379667         2.022994         2.345672
