19
Iteration:   161
 O         0.606973         0.634450         0.568252
 C        -0.768379         1.030858         0.479795
 C        -1.816448         0.055118         0.993135
 C        -2.782394         0.816008         0.104634
 C        -1.516913         1.062097        -0.923582
 O        -1.683729         2.306004        -1.648458
 C        -2.545032         3.092418        -0.762715
 C        -2.659170         2.250377         0.513599
 C        -1.283044         2.209956         1.223258
 H         0.860104         0.850204         1.467607
 H        -1.821400        -1.083136         0.545412
 H        -1.977954        -0.024971         2.084963
 H        -3.566779         0.267232        -0.315280
 H        -1.350737         0.298087        -1.613704
 H        -2.146514         4.117780        -0.635718
 H        -3.549419         3.392248        -1.293498
 H        -3.347793         2.482721         1.325282
 H        -0.731151         3.226247         1.143597
 H        -1.497982         2.042649         2.298340
