19
Iteration:  3019
 O         0.601333         0.706402         0.585937
 C        -0.756848         0.987012         0.481622
 C        -1.840545        -0.089180         0.957290
 C        -2.777355         0.771977         0.026669
 C        -1.549605         1.028222        -0.851459
 O        -1.659158         2.340510        -1.507645
 C        -2.632710         3.105484        -0.716538
 C        -2.618251         2.317626         0.532668
 C        -1.268895         2.264906         1.141542
 H         1.086490         0.891556        -0.221767
 H        -1.575617        -1.036698         0.554963
 H        -1.971208        -0.132506         2.040410
 H        -3.746577         0.470847        -0.355605
 H        -1.095247         0.284266        -1.611338
 H        -2.262990         4.097963        -0.594616
 H        -3.615759         3.203241        -1.146982
 H        -3.401225         2.515052         1.321975
 H        -0.628364         3.061436         0.954705
 H        -1.351806         2.082504         2.220615
