19
Iteration:  2617charge 0 multiplicity 1
 O         0.551473         0.753586         0.490509
 C        -0.789109         0.954956         0.520575
 C        -1.906562         0.010139         0.963698
 C        -2.790387         0.802856         0.115116
 C        -1.490682         0.981003        -0.889106
 O        -1.590133         2.292550        -1.533659
 C        -2.513720         3.010579        -0.792364
 C        -2.698351         2.262520         0.574929
 C        -1.251447         2.290076         1.190472
 H         0.912152         1.664607         0.268261
 H        -1.644115        -1.037811         0.553736
 H        -2.166841        -0.199885         2.095477
 H        -3.775664         0.394964        -0.050982
 H        -1.231008         0.239227        -1.578308
 H        -2.104571         4.086114        -0.740871
 H        -3.519185         3.045295        -1.128910
 H        -3.458253         2.697539         1.178029
 H        -0.608079         3.203025         0.892290
 H        -1.318033         2.237722         2.272392
