19
Iteration:  4334
 O         0.589212         0.519980         0.630701
 C        -0.728995         0.930158         0.511392
 C        -1.831898        -0.030685         0.967220
 C        -2.694486         0.776650         0.049239
 C        -1.517811         1.058183        -0.904464
 O        -1.632570         2.367400        -1.525582
 C        -2.685132         3.073732        -0.760433
 C        -2.721517         2.314186         0.570469
 C        -1.240684         2.370142         1.059715
 H         1.089565         1.282399         0.352899
 H        -1.723410        -1.082146         0.525074
 H        -1.905848         0.057165         2.082312
 H        -3.773532         0.513243        -0.129774
 H        -0.998382         0.237848        -1.590983
 H        -2.453290         4.193357        -0.561212
 H        -3.590738         3.222167        -1.215841
 H        -3.581857         2.631401         1.203788
 H        -0.793262         3.380024         0.827425
 H        -1.343394         2.267614         2.180117
