19
Iteration:  1045charge 0 multiplicity 1
 O         0.643048         0.754161         0.582095
 C        -0.791022         0.981584         0.563116
 C        -1.865483        -0.023189         0.960933
 C        -2.787807         0.790836         0.039614
 C        -1.538820         1.027200        -0.841887
 O        -1.628179         2.312040        -1.649491
 C        -2.495871         3.084525        -0.793293
 C        -2.729761         2.294770         0.536808
 C        -1.276070         2.246194         1.281711
 H         0.757801         0.221215        -0.259954
 H        -1.756070        -1.004157         0.492181
 H        -2.234344        -0.087352         1.972624
 H        -3.725146         0.353308        -0.335291
 H        -1.118087         0.222535        -1.473338
 H        -1.945205         4.017940        -0.582749
 H        -3.527200         3.231565        -1.301122
 H        -3.500546         2.631829         1.299469
 H        -0.728892         3.270815         1.137168
 H        -1.454420         2.084646         2.438128
