19
Iteration:  3506
 O         0.614651         0.712841         0.578466
 C        -0.737650         1.032254         0.436830
 C        -1.851165         0.051639         0.870590
 C        -2.798032         0.841807         0.093161
 C        -1.643890         0.974182        -0.891050
 O        -1.622128         2.248229        -1.543955
 C        -2.517270         2.992132        -0.744249
 C        -2.717373         2.276035         0.598009
 C        -1.224800         2.262601         1.242997
 H         1.115870         1.509761         0.295580
 H        -1.665161        -0.916290         0.250139
 H        -1.995494        -0.211721         1.988136
 H        -3.844162         0.654033        -0.209658
 H        -1.380959         0.211755        -1.581853
 H        -2.160445         4.052319        -0.573154
 H        -3.399564         3.097201        -1.295292
 H        -3.596501         2.556232         1.211007
 H        -0.699623         3.347727         1.088114
 H        -1.187633         1.967764         2.273273
