19
Iteration:  1557
 O         0.585154         0.776972         0.408623
 C        -0.844068         0.990111         0.556095
 C        -1.857765        -0.092358         0.969153
 C        -2.812142         0.816411         0.014977
 C        -1.578982         1.042204        -0.835436
 O        -1.510569         2.246801        -1.552894
 C        -2.519775         3.062340        -0.787519
 C        -2.691379         2.309452         0.584941
 C        -1.273738         2.269692         1.243212
 H         0.882667         1.030242         1.334740
 H        -1.687264        -1.137322         0.502635
 H        -2.279901         0.012879         1.948700
 H        -3.788546         0.404103        -0.259897
 H        -1.221638         0.249620        -1.503285
 H        -2.229762         4.100681        -0.710988
 H        -3.421106         2.902258        -1.242912
 H        -3.527331         2.762582         1.221594
 H        -0.538793         3.069860         0.911876
 H        -1.259923         2.269401         2.423752
