19
Iteration:   796
 O         0.661399         0.738621         0.723463
 C        -0.730452         0.958646         0.487226
 C        -1.893445         0.001271         0.891939
 C        -2.793868         0.859203         0.108147
 C        -1.636872         1.069917        -0.906410
 O        -1.557783         2.264970        -1.650810
 C        -2.570343         3.083611        -0.728778
 C        -2.719546         2.267457         0.574022
 C        -1.249729         2.220004         1.152396
 H         1.083267         0.947778        -0.113641
 H        -1.782688        -1.014303         0.498903
 H        -2.146035        -0.153251         2.009332
 H        -3.764637         0.450875        -0.348432
 H        -1.470966         0.194931        -1.597822
 H        -2.218664         4.137087        -0.514991
 H        -3.651104         2.985581        -1.192119
 H        -3.525709         2.638078         1.359551
 H        -0.599389         3.034256         0.885747
 H        -1.261014         2.021771         2.184941
