19
Iteration:  4321
 O         0.556787         0.569794         0.637235
 C        -0.769497         1.019489         0.455522
 C        -1.814733        -0.042818         1.032382
 C        -2.727903         0.813287         0.069644
 C        -1.504993         1.059741        -0.863431
 O        -1.633865         2.389549        -1.530909
 C        -2.684041         3.090263        -0.783081
 C        -2.675892         2.281584         0.518481
 C        -1.251590         2.277537         1.121481
 H         1.247757         1.103314         0.150724
 H        -1.619861        -1.062026         0.649809
 H        -2.181750        -0.193613         2.059848
 H        -3.533031         0.327522        -0.501517
 H        -1.416554         0.309267        -1.702398
 H        -2.314782         4.115102        -0.654389
 H        -3.567564         2.990736        -1.338838
 H        -3.341267         2.581312         1.261977
 H        -0.617840         3.077563         0.730316
 H        -1.097180         2.231576         2.309644
