19
Iteration:  1861
 O         0.558040         0.741736         0.414926
 C        -0.787158         0.932237         0.493032
 C        -1.899969        -0.036649         1.038728
 C        -2.763516         0.860142         0.018968
 C        -1.490891         0.982196        -0.886831
 O        -1.574543         2.316379        -1.512580
 C        -2.573348         3.061560        -0.770493
 C        -2.686297         2.283990         0.594571
 C        -1.254942         2.253498         1.217777
 H         1.028785         1.224742         1.065166
 H        -1.610443        -1.026690         0.547632
 H        -2.094473        -0.133583         2.090219
 H        -3.646628         0.414416        -0.349359
 H        -1.421976         0.073143        -1.526554
 H        -2.233033         4.079557        -0.690214
 H        -3.587891         3.064769        -1.222364
 H        -3.491200         2.604470         1.275600
 H        -0.722900         3.250711         0.812266
 H        -1.296498         2.293050         2.356578
