19
Iteration:  3769charge 0 multiplicity 1
 O         0.597943         0.668053         0.596103
 C        -0.744957         0.947824         0.457036
 C        -1.852489        -0.062073         0.896906
 C        -2.822454         0.807119         0.143884
 C        -1.529052         1.075648        -0.871633
 O        -1.619444         2.294704        -1.576764
 C        -2.572991         3.074062        -0.815090
 C        -2.674652         2.333023         0.570833
 C        -1.281999         2.265838         1.239261
 H         1.074209         1.420013         0.266834
 H        -1.653109        -1.087764         0.713364
 H        -2.067983        -0.067866         1.986303
 H        -3.770387         0.452333        -0.061830
 H        -1.243575         0.415219        -1.719346
 H        -2.267807         4.131971        -0.692724
 H        -3.531059         2.904367        -1.410357
 H        -3.478935         2.613546         1.264743
 H        -0.575296         3.066752         0.848337
 H        -1.215188         2.264843         2.314107
