19
Iteration:  4200
 O         0.598933         0.569204         0.652737
 C        -0.734589         0.971332         0.457472
 C        -1.793472        -0.076521         0.944755
 C        -2.786012         0.864765         0.048100
 C        -1.559098         1.066016        -0.901770
 O        -1.659616         2.360953        -1.521444
 C        -2.644353         2.986553        -0.793812
 C        -2.691933         2.295422         0.550388
 C        -1.198238         2.355289         1.180492
 H         1.111660         1.384500         0.551551
 H        -1.774960        -1.059200         0.489120
 H        -2.049470        -0.169121         2.036513
 H        -3.745029         0.620552        -0.399495
 H        -1.292237         0.241919        -1.483399
 H        -2.245534         4.018641        -0.719499
 H        -3.690716         3.093573        -1.321388
 H        -3.382186         2.733261         1.168528
 H        -0.557355         3.096054         0.774275
 H        -1.326203         2.415516         2.251636
