19
Iteration:  2996charge 0 multiplicity 1
 O         0.619953         0.622611         0.658409
 C        -0.720480         0.952587         0.533792
 C        -1.791419        -0.057837         0.938214
 C        -2.739990         0.830061         0.052334
 C        -1.523397         1.143377        -0.945460
 O        -1.662638         2.351807        -1.629701
 C        -2.699588         3.075256        -0.744132
 C        -2.735504         2.297888         0.643137
 C        -1.199300         2.263834         1.204815
 H         1.075005         0.727841        -0.236971
 H        -1.775092        -1.048363         0.496939
 H        -2.054268        -0.066089         1.956867
 H        -3.624291         0.362785        -0.374393
 H        -1.383815         0.250647        -1.701076
 H        -2.370981         4.055452        -0.672358
 H        -3.648089         3.203869        -1.258118
 H        -3.707729         2.505068         1.277446
 H        -0.601509         3.015731         0.844202
 H        -1.123307         2.162010         2.295327
