19
Iteration:  4686charge 0 multiplicity 1
 O         0.602942         0.682853         0.661974
 C        -0.738146         0.949046         0.509793
 C        -1.889366        -0.015719         0.873535
 C        -2.796801         0.882885         0.085939
 C        -1.517270         1.029454        -0.941446
 O        -1.712130         2.266569        -1.590749
 C        -2.509077         3.104431        -0.708677
 C        -2.714229         2.307525         0.570379
 C        -1.228611         2.206318         1.146835
 H         1.113147         1.410116         0.338167
 H        -1.891436        -1.095446         0.713583
 H        -2.147726         0.040100         1.923841
 H        -3.644990         0.472830        -0.282072
 H        -1.096188         0.265435        -1.514524
 H        -2.046051         4.113447        -0.658894
 H        -3.511242         3.211356        -1.364257
 H        -3.473762         2.569211         1.321960
 H        -0.622235         3.086225         1.003273
 H        -1.030730         1.983690         2.215730
