19
Iteration:   131charge 0 multiplicity 1
 O         0.615615         0.874348         0.341097
 C        -0.821678         1.045544         0.550087
 C        -1.930939        -0.164696         0.962837
 C        -2.892618         0.848312        -0.006925
 C        -1.566342         0.956873        -0.764813
 O        -1.549605         2.155099        -1.461168
 C        -2.412500         3.088681        -0.745464
 C        -2.693036         2.339019         0.550334
 C        -1.290880         2.269791         1.196273
 H         1.049301         1.222323         1.152265
 H        -1.606113        -1.030693         0.382327
 H        -2.306682        -0.320529         1.950971
 H        -3.709134         0.534604        -0.638235
 H        -1.296965         0.159912        -1.442758
 H        -1.828426         3.985867        -0.550448
 H        -3.428465         3.202768        -1.309140
 H        -3.309169         2.655138         1.343069
 H        -0.699842         3.201964         1.113484
 H        -1.440815         2.133617         2.277410
