19
Iteration:  4601
 O         0.551395         0.634073         0.617373
 C        -0.800526         0.959464         0.505384
 C        -1.862112         0.004645         0.998496
 C        -2.793224         0.813710         0.048184
 C        -1.457151         1.035172        -0.926208
 O        -1.563406         2.318283        -1.501826
 C        -2.693819         3.135765        -0.800045
 C        -2.695521         2.317917         0.565299
 C        -1.180748         2.209248         1.177967
 H         0.962520         1.206103        -0.088776
 H        -1.653695        -1.080196         0.740844
 H        -2.103268         0.060452         2.073205
 H        -3.668127         0.280161        -0.446188
 H        -1.318604         0.315504        -1.736093
 H        -2.256029         4.186015        -0.791890
 H        -3.545873         3.008119        -1.336300
 H        -3.590907         2.624185         1.231377
 H        -0.663563         3.193711         0.752164
 H        -0.988530         2.073602         2.205025
