19
Iteration:  4004
 O         0.588292         0.599822         0.624576
 C        -0.756792         0.967942         0.434305
 C        -1.909695         0.007980         0.993522
 C        -2.714799         0.833824         0.041332
 C        -1.476625         1.030379        -0.933343
 O        -1.668373         2.324643        -1.519563
 C        -2.613265         3.021411        -0.765553
 C        -2.673680         2.272934         0.580812
 C        -1.244626         2.310209         1.170723
 H         1.136073         1.394300         0.381931
 H        -1.785824        -1.002496         0.581506
 H        -2.254015        -0.093438         2.049869
 H        -3.746862         0.556428        -0.332492
 H        -1.147638         0.309579        -1.671701
 H        -2.339676         4.091132        -0.656085
 H        -3.597208         2.951195        -1.207082
 H        -3.307868         2.765492         1.291614
 H        -0.636977         3.238568         0.665167
 H        -1.181133         2.471903         2.231252
