19
Iteration:  3402
 O         0.557236         0.652860         0.608498
 C        -0.758708         0.986178         0.504808
 C        -1.771164        -0.142934         0.974698
 C        -2.769630         0.829353         0.006388
 C        -1.568845         1.048899        -0.912365
 O        -1.684228         2.368939        -1.553796
 C        -2.622115         3.037939        -0.740197
 C        -2.637116         2.325514         0.618159
 C        -1.213035         2.300926         1.128222
 H         1.282515         1.344338         0.596411
 H        -1.612295        -1.095512         0.528108
 H        -2.058484        -0.263521         2.033790
 H        -3.801668         0.591455        -0.359513
 H        -1.343346         0.209804        -1.694186
 H        -2.371940         4.053144        -0.749560
 H        -3.630464         2.839566        -1.144518
 H        -3.489653         2.615319         1.300339
 H        -0.693999         3.120408         0.658120
 H        -0.979500         2.423364         2.273464
