19
Iteration:  2048charge 0 multiplicity 1
 O         0.641196         0.633910         0.725691
 C        -0.695851         0.993403         0.475077
 C        -1.831837         0.038726         0.877722
 C        -2.770870         0.773670         0.046265
 C        -1.573902         1.083406        -0.912438
 O        -1.789227         2.233815        -1.614979
 C        -2.608743         3.058594        -0.678672
 C        -2.596122         2.321993         0.546102
 C        -1.237333         2.286832         1.174943
 H         1.336758         1.286263         0.613681
 H        -1.477780        -0.945806         0.341849
 H        -2.061900        -0.238043         1.884812
 H        -3.724662         0.404269        -0.320931
 H        -1.386157         0.265484        -1.638524
 H        -2.266645         4.126896        -0.552142
 H        -3.636124         3.307089        -1.144530
 H        -3.522269         2.852971         1.059746
 H        -0.558444         3.044347         0.757851
 H        -1.376920         2.145893         2.155892
