19
Iteration:   526
 O         0.593208         0.462900         0.824153
 C        -0.720280         0.928415         0.454174
 C        -1.784362         0.031984         0.904084
 C        -2.686506         0.856947         0.052317
 C        -1.538967         1.106454        -0.942685
 O        -1.674017         2.339766        -1.543409
 C        -2.807208         3.050890        -0.766566
 C        -2.660240         2.287655         0.549080
 C        -1.213053         2.361403         1.053058
 H         1.294266         1.091921         0.500026
 H        -1.635810        -0.905894         0.468811
 H        -1.850189         0.233563         2.013118
 H        -3.685243         0.425321        -0.314014
 H        -1.237739         0.355609        -1.762958
 H        -2.548184         4.113719        -0.692941
 H        -3.809223         2.895896        -1.295089
 H        -3.255241         2.673210         1.264865
 H        -0.572296         3.167488         0.769384
 H        -1.298075         2.431392         2.195048
