19
Iteration:  4613charge 0 multiplicity 1
 O         0.588087         0.559492         0.614491
 C        -0.753636         0.958705         0.522378
 C        -1.878644         0.023681         0.995409
 C        -2.719144         0.741255         0.010981
 C        -1.561946         1.087229        -0.905991
 O        -1.604334         2.376728        -1.483232
 C        -2.662330         3.028383        -0.816058
 C        -2.672321         2.328215         0.531912
 C        -1.232443         2.308250         1.150316
 H         1.138845         1.203268         0.114978
 H        -1.734535        -1.006054         0.523013
 H        -2.313282        -0.070621         2.015858
 H        -3.840807         0.433605        -0.129593
 H        -1.109439         0.332095        -1.605962
 H        -2.329488         4.125137        -0.775018
 H        -3.565673         3.077408        -1.312979
 H        -3.388290         2.689474         1.356767
 H        -0.394960         3.087651         0.870645
 H        -1.252619         2.254247         2.251106
