19
Iteration:   412
 O         0.609681         0.754731         0.686267
 C        -0.743719         1.011650         0.555554
 C        -1.880060        -0.080757         0.867846
 C        -2.821047         0.835945         0.055941
 C        -1.593429         0.971353        -0.898201
 O        -1.685521         2.224276        -1.573923
 C        -2.479882         3.069900        -0.789415
 C        -2.638962         2.303680         0.597805
 C        -1.292229         2.287727         1.157278
 H         1.149865         1.081325        -0.075017
 H        -1.570072        -0.997618         0.276352
 H        -2.186288        -0.229728         1.844256
 H        -3.777859         0.463284        -0.186314
 H        -1.161812         0.192501        -1.437460
 H        -1.928552         4.105100        -0.652748
 H        -3.518624         3.354594        -1.248376
 H        -3.386331         2.830475         1.217505
 H        -0.651154         3.230048         0.943990
 H        -1.184498         2.325290         2.237387
