19
Iteration:   230charge 0 multiplicity 1
 O         0.583001         0.663112         0.532441
 C        -0.701962         0.976933         0.465061
 C        -1.881593         0.012867         1.005003
 C        -2.731676         0.824918         0.026790
 C        -1.555244         1.050267        -0.918780
 O        -1.557489         2.310396        -1.435747
 C        -2.647714         3.070379        -0.795596
 C        -2.705484         2.268978         0.593869
 C        -1.237754         2.313145         1.093720
 H         0.839894         0.373358         1.404204
 H        -1.860421        -0.985287         0.527067
 H        -2.105791        -0.094563         2.109842
 H        -3.707185         0.483519        -0.358287
 H        -1.356061         0.250604        -1.704148
 H        -2.574275         4.112166        -0.974833
 H        -3.636116         2.837987        -1.388189
 H        -3.362262         2.584341         1.369395
 H        -0.720093         3.222444         0.854867
 H        -1.197641         2.252037         2.242539
