19
Iteration:  4608charge 0 multiplicity 1
 O         0.564381         0.591477         0.614351
 C        -0.751825         0.946590         0.524512
 C        -1.867147         0.028824         1.011510
 C        -2.764081         0.730571         0.034691
 C        -1.505730         1.093546        -0.943222
 O        -1.579607         2.346440        -1.479763
 C        -2.689003         3.077393        -0.810565
 C        -2.687492         2.333750         0.548069
 C        -1.215336         2.278143         1.168224
 H         1.000454         1.215470         0.024572
 H        -1.710510        -0.898425         0.530160
 H        -2.355800         0.029816         1.977830
 H        -3.691889         0.348957        -0.227296
 H        -1.217322         0.339311        -1.655182
 H        -2.244531         4.048383        -0.890129
 H        -3.712474         3.146812        -1.421681
 H        -3.363776         2.658225         1.287902
 H        -0.508421         2.971502         0.856706
 H        -1.000394         2.083093         2.245533
