19
Iteration:   751charge 0 multiplicity 1
 O         0.600652         0.693280         0.377593
 C        -0.768363         1.008158         0.530067
 C        -1.899562        -0.030824         1.059930
 C        -2.828540         0.819314         0.009170
 C        -1.501629         1.005994        -0.822432
 O        -1.548287         2.263765        -1.567388
 C        -2.447641         3.072927        -0.787609
 C        -2.785840         2.235075         0.543672
 C        -1.344239         2.336229         1.356912
 H         1.111695         1.474159         0.213504
 H        -1.826527        -0.994057         0.477944
 H        -1.916404        -0.267897         2.162023
 H        -3.775213         0.451847        -0.416199
 H        -1.290864         0.085164        -1.426904
 H        -1.856217         3.996711        -0.554550
 H        -3.337531         3.351701        -1.511093
 H        -3.675666         2.612066         1.229819
 H        -0.888016         3.287879         1.071143
 H        -1.288401         2.141783         2.383793
