19
Iteration:  1132charge 0 multiplicity 1
 O         0.641955         0.546309         0.689106
 C        -0.735848         1.079204         0.501576
 C        -1.852003         0.003141         0.954903
 C        -2.759448         0.823306         0.002275
 C        -1.504326         1.115405        -0.892194
 O        -1.621429         2.380791        -1.523696
 C        -2.690401         3.005310        -0.775817
 C        -2.670553         2.269873         0.518037
 C        -1.257864         2.336862         1.170703
 H         0.603995        -0.238881         0.080049
 H        -1.759492        -1.102740         0.627594
 H        -2.016648        -0.045767         2.011882
 H        -3.668298         0.407655        -0.436751
 H        -1.130265         0.248542        -1.459051
 H        -2.385400         4.072437        -0.713323
 H        -3.698329         2.850626        -1.350413
 H        -3.595058         2.592958         1.120162
 H        -0.730887         3.247867         0.689032
 H        -1.112974         2.362864         2.310309
