19
Iteration:  3401charge 0 multiplicity 1
 O         0.558202         0.653690         0.609428
 C        -0.751343         0.989648         0.488821
 C        -1.776175        -0.139602         0.971817
 C        -2.763757         0.827067        -0.001063
 C        -1.566195         1.045870        -0.904258
 O        -1.688575         2.358823        -1.546595
 C        -2.619559         3.031603        -0.734397
 C        -2.641214         2.328610         0.615396
 C        -1.211668         2.309482         1.131561
 H         1.279524         1.346255         0.593019
 H        -1.639251        -1.084784         0.555676
 H        -2.079214        -0.301922         2.032952
 H        -3.774947         0.616205        -0.375687
 H        -1.368641         0.221856        -1.711929
 H        -2.340129         4.078317        -0.726081
 H        -3.651322         2.857991        -1.155340
 H        -3.510689         2.636549         1.294816
 H        -0.726619         3.119356         0.688169
 H        -0.961416         2.414865         2.258834
