19
Iteration:  1511
 O         0.582007         0.679606         0.613046
 C        -0.722735         1.000817         0.502889
 C        -1.883982        -0.034241         1.002253
 C        -2.782936         0.755405         0.003118
 C        -1.580805         1.055414        -0.876815
 O        -1.722283         2.305761        -1.641087
 C        -2.516055         3.153098        -0.854466
 C        -2.647269         2.247881         0.576952
 C        -1.224283         2.245130         1.254124
 H         1.161883         1.151307         1.274781
 H        -1.601988        -1.025459         0.525912
 H        -1.953639         0.009504         2.145493
 H        -3.617093         0.291851        -0.398030
 H        -1.368019         0.348491        -1.709671
 H        -1.965941         4.054013        -0.650826
 H        -3.486847         3.279100        -1.209885
 H        -3.549893         2.544361         1.073919
 H        -0.682823         3.111128         0.954155
 H        -1.215639         2.203940         2.412292
