19
Iteration:  4312charge 0 multiplicity 1
 O         0.595564         0.603039         0.646375
 C        -0.788551         0.989585         0.511024
 C        -1.817773         0.004391         0.960388
 C        -2.789479         0.810699         0.015425
 C        -1.536648         1.098470        -0.897036
 O        -1.632404         2.347175        -1.503788
 C        -2.611696         3.047406        -0.789519
 C        -2.732990         2.261832         0.561840
 C        -1.144665         2.252914         1.176066
 H         1.118772         1.123766        -0.026063
 H        -1.503570        -1.029398         0.613247
 H        -2.022834         0.075044         2.063531
 H        -3.798552         0.518031        -0.373961
 H        -1.423570         0.236765        -1.694578
 H        -2.447137         4.163221        -0.919493
 H        -3.598947         2.999721        -1.189257
 H        -3.638742         2.548240         1.117859
 H        -0.573525         3.101812         0.737997
 H        -1.274279         2.291049         2.212951
