19
Iteration:  3805charge 0 multiplicity 1
 O         0.607919         0.683376         0.571904
 C        -0.784713         0.990396         0.474201
 C        -1.869893        -0.038869         0.941797
 C        -2.831640         0.753242         0.089826
 C        -1.463126         1.082748        -0.889448
 O        -1.653189         2.273485        -1.561225
 C        -2.529814         3.091351        -0.773855
 C        -2.672764         2.277823         0.559348
 C        -1.287069         2.258416         1.223491
 H         1.159234         1.373977         0.201125
 H        -1.710409        -1.075703         0.521366
 H        -2.058100         0.062850         2.014389
 H        -3.854125         0.338864        -0.001749
 H        -1.266148         0.173709        -1.464024
 H        -2.071167         4.132810        -0.658316
 H        -3.496096         3.340540        -1.387057
 H        -3.458390         2.746548         1.231828
 H        -0.738658         3.154664         0.902593
 H        -1.329585         2.272540         2.237157
