19
Iteration:  2097charge 0 multiplicity 1
 O         0.661482         0.576924         0.546661
 C        -0.723536         0.967560         0.568694
 C        -1.820957         0.010735         0.994853
 C        -2.775118         0.844927         0.060700
 C        -1.586756         1.002112        -0.829022
 O        -1.613433         2.402420        -1.433243
 C        -2.688421         3.054288        -0.841795
 C        -2.716010         2.227593         0.514792
 C        -1.220080         2.314211         1.075953
 H         1.217446         1.255391         0.104637
 H        -1.621531        -0.992937         0.754845
 H        -2.015133         0.136506         2.100894
 H        -3.734489         0.493887        -0.332694
 H        -1.238866         0.376311        -1.655136
 H        -2.564408         4.117647        -0.854926
 H        -3.709786         2.952945        -1.420857
 H        -3.435710         2.454763         1.256961
 H        -0.707105         3.232434         0.800833
 H        -1.400521         2.061678         2.179352
