19
Iteration:    15charge 0 multiplicity 1
 O         0.758712         0.587503         0.717045
 C        -0.686981         0.918485         0.402594
 C        -1.870731        -0.028886         0.886826
 C        -2.785101         0.885015         0.021309
 C        -1.598543         1.068892        -0.924732
 O        -1.616868         2.406697        -1.554376
 C        -2.662182         3.088957        -0.722670
 C        -2.710811         2.291505         0.565836
 C        -1.262952         2.237232         1.099108
 H         0.761261         0.679771         1.713261
 H        -1.883487        -1.016425         0.597630
 H        -2.189962         0.166195         2.002324
 H        -3.777233         0.443305        -0.316649
 H        -1.568600         0.198622        -1.684053
 H        -2.386095         4.176959        -0.709714
 H        -3.712730         2.762751        -1.201055
 H        -3.524458         2.630851         1.259910
 H        -0.705795         3.074241         0.856556
 H        -1.158687         2.262592         2.206637
