19
Iteration:  2870
 O         0.648764         0.730390         0.553711
 C        -0.765991         0.977501         0.483514
 C        -1.802166        -0.008992         0.981220
 C        -2.737883         0.799078        -0.004228
 C        -1.550357         1.046743        -0.883939
 O        -1.667519         2.269795        -1.548139
 C        -2.616755         3.155515        -0.725272
 C        -2.728581         2.301424         0.561553
 C        -1.257326         2.254497         1.161867
 H         0.698088        -0.201382         0.859014
 H        -1.604854        -1.031118         0.634606
 H        -1.746514        -0.141789         2.149123
 H        -3.663596         0.412366        -0.457468
 H        -1.380981         0.221011        -1.503356
 H        -2.107506         4.205101        -0.678536
 H        -3.583495         2.987184        -1.261501
 H        -3.493245         2.633328         1.231898
 H        -0.727151         3.253234         1.088611
 H        -1.396239         2.176547         2.219479
