19
Iteration:  4622charge 0 multiplicity 1
 O         0.607552         0.515878         0.615094
 C        -0.765945         1.001288         0.531379
 C        -1.873968        -0.051442         0.953040
 C        -2.751917         0.852782         0.023579
 C        -1.558558         1.035394        -0.862546
 O        -1.628126         2.381365        -1.515809
 C        -2.628267         3.037087        -0.777183
 C        -2.643336         2.306818         0.526989
 C        -1.229049         2.340692         1.133971
 H         1.235028         1.196318         0.300051
 H        -1.667572        -1.091336         0.678259
 H        -2.011162        -0.062560         2.021763
 H        -3.717895         0.537424        -0.352135
 H        -1.215978         0.341903        -1.589366
 H        -2.488092         4.124412        -0.562526
 H        -3.544758         2.830659        -1.290498
 H        -3.534444         2.601903         1.166782
 H        -0.709103         3.304790         0.828753
 H        -1.418205         2.402504         2.135286
