19
Iteration:   195
 O         0.599283         0.554200         0.688112
 C        -0.710054         0.972063         0.564091
 C        -1.864733        -0.054160         0.921338
 C        -2.729364         0.836162         0.028127
 C        -1.471258         1.103415        -0.915558
 O        -1.710781         2.372709        -1.546924
 C        -2.763293         3.090536        -0.756050
 C        -2.627241         2.268883         0.582337
 C        -1.154062         2.383220         1.038599
 H         0.842806         0.385608         1.595983
 H        -1.841860        -1.062424         0.225415
 H        -2.220240        -0.388634         1.923526
 H        -3.589042         0.438530        -0.431155
 H        -1.236181         0.293387        -1.549561
 H        -2.406398         4.108420        -0.762635
 H        -3.660058         2.769423        -1.376761
 H        -3.330876         2.489116         1.355511
 H        -0.583354         3.141781         0.376025
 H        -1.165134         2.616420         2.105414
