19
Iteration:  2762
 O         0.600406         0.693341         0.498611
 C        -0.773625         0.961943         0.518194
 C        -1.857940        -0.066838         1.047596
 C        -2.728459         0.790744         0.096019
 C        -1.520682         1.070523        -0.840390
 O        -1.590569         2.284572        -1.605922
 C        -2.611885         3.125234        -0.809664
 C        -2.741981         2.289610         0.574892
 C        -1.259347         2.278102         1.241659
 H         1.024419         1.269170        -0.107241
 H        -1.863639        -1.062569         0.577732
 H        -2.246916        -0.272841         2.170242
 H        -3.650629         0.431492        -0.401826
 H        -1.095919         0.159984        -1.418683
 H        -1.953694         4.069961        -0.725645
 H        -3.551026         3.188083        -1.407517
 H        -3.710435         2.567212         1.168719
 H        -0.714432         3.223559         0.900917
 H        -1.281690         2.204918         2.295189
