19
Iteration:  1278
 O         0.643392         0.718675         0.693456
 C        -0.764380         0.838071         0.528169
 C        -1.909924        -0.105653         0.952600
 C        -2.744504         0.832801         0.039345
 C        -1.512675         1.055514        -0.865292
 O        -1.601615         2.386630        -1.559479
 C        -2.687376         3.086871        -0.810692
 C        -2.648804         2.291106         0.523315
 C        -1.243501         2.318512         1.148111
 H         0.968687         0.144625         0.013590
 H        -1.818373        -1.068307         0.519142
 H        -2.133669        -0.009215         2.086954
 H        -3.773562         0.526742        -0.295540
 H        -1.420454         0.369690        -1.678337
 H        -2.280940         4.077457        -0.763025
 H        -3.711768         3.028860        -1.192113
 H        -3.436201         2.696115         1.132096
 H        -0.603792         3.216285         0.757043
 H        -1.135401         2.348649         2.368769
