19
Iteration:  2585
 O         0.634297         0.670682         0.579624
 C        -0.757560         0.946077         0.499384
 C        -1.780663         0.006954         0.967148
 C        -2.764147         0.853425         0.074220
 C        -1.504274         0.997045        -0.877664
 O        -1.706427         2.264140        -1.546590
 C        -2.525331         3.072104        -0.773388
 C        -2.745324         2.324759         0.555106
 C        -1.331561         2.236359         1.161112
 H         1.094469         1.474501         0.391641
 H        -1.608762        -1.003213         0.518655
 H        -1.968571         0.103051         2.096286
 H        -3.662399         0.369878        -0.256840
 H        -1.387788         0.266585        -1.623949
 H        -2.040493         4.113643        -0.802234
 H        -3.496516         3.234021        -1.171942
 H        -3.544971         2.686762         1.178886
 H        -0.811345         3.247269         0.924104
 H        -1.330059         2.120544         2.219535
