19
Iteration:  3285
 O         0.521524         0.586969         0.611753
 C        -0.732106         0.994796         0.444429
 C        -1.748481         0.048275         0.952623
 C        -2.751104         0.768829        -0.008880
 C        -1.569925         1.083806        -0.884875
 O        -1.656712         2.383171        -1.513091
 C        -2.625515         2.993907        -0.721748
 C        -2.733637         2.243382         0.610578
 C        -1.188018         2.311008         1.133961
 H         1.108121         1.326809         0.303613
 H        -1.516492        -1.059379         0.706000
 H        -1.884791         0.085417         2.052916
 H        -3.697190         0.352189        -0.477884
 H        -1.475181         0.352342        -1.677383
 H        -2.315197         4.098700        -0.569916
 H        -3.626342         2.803486        -1.235707
 H        -3.470943         2.594639         1.292990
 H        -0.519581         3.159077         0.816967
 H        -1.073722         2.252414         2.172066
