19
Iteration:  3379charge 0 multiplicity 1
 O         0.687385         0.650881         0.581426
 C        -0.737571         0.992275         0.520743
 C        -1.834067         0.034956         0.892325
 C        -2.820657         0.842888         0.047265
 C        -1.529245         1.020916        -0.895059
 O        -1.721436         2.267869        -1.541656
 C        -2.606428         3.128716        -0.700778
 C        -2.719881         2.236684         0.569850
 C        -1.240002         2.265331         1.112531
 H         1.262429         1.368578         0.381116
 H        -1.702397        -0.928560         0.519961
 H        -2.010306         0.011734         1.999193
 H        -3.744963         0.319264        -0.211658
 H        -1.127135         0.106691        -1.501837
 H        -2.058723         4.025883        -0.525236
 H        -3.516843         3.267970        -1.301924
 H        -3.476844         2.391066         1.426807
 H        -0.675170         3.136709         0.990517
 H        -1.369659         2.155483         2.293810
