19
Iteration:  4005charge 0 multiplicity 1
 O         0.592243         0.600562         0.627045
 C        -0.754643         0.976336         0.436721
 C        -1.918341        -0.000528         0.986414
 C        -2.711898         0.827245         0.041392
 C        -1.484053         1.036011        -0.927016
 O        -1.668319         2.326530        -1.520399
 C        -2.610286         3.019655        -0.766669
 C        -2.673100         2.268851         0.582531
 C        -1.241211         2.322744         1.166273
 H         1.163810         1.351561         0.389105
 H        -1.824034        -0.993898         0.578001
 H        -2.236175        -0.071048         2.054829
 H        -3.723304         0.562336        -0.333840
 H        -1.176159         0.296465        -1.650754
 H        -2.349935         4.086556        -0.661593
 H        -3.631186         2.950697        -1.237877
 H        -3.275764         2.737396         1.303955
 H        -0.633188         3.229396         0.666012
 H        -1.190507         2.424341         2.225850
