19
Iteration:  1742charge 0 multiplicity 1
 O         0.540932         0.689638         0.528297
 C        -0.753432         0.982198         0.470200
 C        -1.841441        -0.098751         0.987377
 C        -2.727345         0.809318         0.086854
 C        -1.539502         1.019688        -0.908123
 O        -1.619342         2.341735        -1.557237
 C        -2.632309         3.061469        -0.753016
 C        -2.654500         2.315523         0.563817
 C        -1.206856         2.309145         1.142286
 H         0.656714         0.863691         1.528445
 H        -1.720358        -1.161679         0.508334
 H        -1.891761        -0.019540         2.060230
 H        -3.706115         0.532272        -0.181877
 H        -1.188893         0.315469        -1.688897
 H        -2.284506         4.074210        -0.693961
 H        -3.682036         3.022697        -1.337216
 H        -3.434641         2.587826         1.346049
 H        -0.582546         3.242986         0.887270
 H        -1.459820         2.076925         2.226391
