19
Iteration:  3096
 O         0.627018         0.590997         0.594528
 C        -0.726054         0.964093         0.462849
 C        -1.836984        -0.054429         0.896970
 C        -2.720332         0.900113         0.059543
 C        -1.540572         1.105458        -0.904802
 O        -1.715365         2.290401        -1.561183
 C        -2.608096         3.018366        -0.679418
 C        -2.627762         2.248269         0.575072
 C        -1.295035         2.363051         1.128912
 H         1.117840         1.368792         0.795821
 H        -1.761516        -1.030160         0.544758
 H        -1.994350        -0.128228         1.993104
 H        -3.703411         0.627423        -0.306900
 H        -1.326316         0.283641        -1.712772
 H        -2.264708         4.031802        -0.545673
 H        -3.651889         2.902499        -1.120930
 H        -3.360109         2.613882         1.379282
 H        -0.838495         3.271974         1.017700
 H        -1.359824         2.230148         2.220705
