19
Iteration:   165charge 0 multiplicity 1
 O         0.606556         0.599241         0.606276
 C        -0.737045         1.060017         0.455750
 C        -1.792083         0.047401         0.994677
 C        -2.791866         0.818521         0.073957
 C        -1.527929         1.074223        -0.932434
 O        -1.697632         2.309736        -1.637085
 C        -2.571008         3.089216        -0.744893
 C        -2.665066         2.251921         0.535566
 C        -1.256291         2.230595         1.184473
 H         0.875225         0.768128         1.549195
 H        -1.667810        -0.926777         0.664985
 H        -2.031492        -0.041347         2.058419
 H        -3.744886         0.378245        -0.354784
 H        -1.290836         0.204490        -1.623570
 H        -2.169962         4.087240        -0.621035
 H        -3.546991         3.287306        -1.350566
 H        -3.398951         2.580293         1.260231
 H        -0.780638         3.178994         1.153472
 H        -1.504562         1.896010         2.213802
