19
Iteration:   180
 O         0.629405         0.525167         0.685067
 C        -0.718028         0.983145         0.462036
 C        -1.798559         0.003262         0.880833
 C        -2.691374         0.817119        -0.038567
 C        -1.559043         1.051790        -0.930109
 O        -1.727371         2.299909        -1.540149
 C        -2.666580         3.044529        -0.754166
 C        -2.697971         2.361284         0.571957
 C        -1.230795         2.362683         1.166617
 H         0.710675         0.592561         1.657222
 H        -1.456598        -1.039827         0.603643
 H        -1.968355         0.133279         1.952025
 H        -3.747257         0.551202        -0.353097
 H        -1.244136         0.351656        -1.741567
 H        -2.342223         4.130339        -0.680222
 H        -3.638669         3.122287        -1.090738
 H        -3.605693         2.653303         1.230010
 H        -0.625298         3.239358         0.823543
 H        -0.983007         2.391576         2.244389
