19
Iteration:  3073
 O         0.603972         0.654634         0.517875
 C        -0.769365         0.950728         0.528858
 C        -1.825099        -0.025762         0.948255
 C        -2.763449         0.733273         0.048726
 C        -1.571828         1.048500        -0.855342
 O        -1.634403         2.313360        -1.574357
 C        -2.681186         3.164544        -0.801247
 C        -2.736188         2.411878         0.530351
 C        -1.168924         2.181595         1.255803
 H         1.149971         1.477040         0.609635
 H        -1.377659        -0.951986         0.675249
 H        -1.983651        -0.151032         1.991743
 H        -3.631480         0.148465        -0.208869
 H        -1.213398         0.322445        -1.714400
 H        -2.303905         4.098809        -0.586333
 H        -3.657140         3.088625        -1.430028
 H        -3.464075         2.736698         1.446217
 H        -0.565369         2.973914         1.133523
 H        -1.094468         2.009468         2.388643
