19
Iteration:  3889
 O         0.561625         0.548950         0.659695
 C        -0.765764         1.024423         0.450918
 C        -1.829345        -0.037820         0.968877
 C        -2.751878         0.786352         0.034625
 C        -1.501744         1.054065        -0.910767
 O        -1.694673         2.350981        -1.478294
 C        -2.622578         3.047078        -0.772644
 C        -2.724773         2.310375         0.549790
 C        -1.161506         2.351717         1.112150
 H         1.183754         1.267115         0.367528
 H        -1.593139        -0.998007         0.502529
 H        -2.068236        -0.187067         2.041857
 H        -3.689730         0.405540        -0.221020
 H        -1.082750         0.324514        -1.641774
 H        -2.342356         4.077400        -0.655247
 H        -3.513613         2.990532        -1.351620
 H        -3.589897         2.619860         1.166094
 H        -0.502611         3.201585         0.681279
 H        -1.201854         2.280166         2.290547
