19
Iteration:  4819
 O         0.588974         0.540373         0.655932
 C        -0.725634         0.977474         0.501086
 C        -1.875835         0.012621         0.938500
 C        -2.780430         0.858330         0.037125
 C        -1.486825         1.097003        -0.849988
 O        -1.712172         2.327099        -1.675186
 C        -2.588554         3.033250        -0.731652
 C        -2.664634         2.303663         0.537795
 C        -1.205694         2.262640         1.182630
 H         1.210580         1.253789         0.504361
 H        -1.548972        -0.968731         0.491132
 H        -2.159522         0.092473         1.998116
 H        -3.793803         0.467986        -0.262368
 H        -1.390839         0.186265        -1.504936
 H        -2.360343         4.117752        -0.536078
 H        -3.590720         3.178647        -1.137671
 H        -3.417430         2.707512         1.355407
 H        -0.672843         3.299340         0.992660
 H        -1.190151         2.057088         2.289365
