19
Iteration:  4068charge 0 multiplicity 1
 O         0.627240         0.599117         0.599499
 C        -0.795053         1.034287         0.557423
 C        -1.838390         0.067345         0.977720
 C        -2.785754         0.795527        -0.042921
 C        -1.565864         0.988269        -0.942937
 O        -1.647926         2.287176        -1.566226
 C        -2.632959         3.091099        -0.733109
 C        -2.687010         2.289467         0.580701
 C        -1.239019         2.278943         1.205993
 H         1.177242         1.359992         0.452764
 H        -1.609126        -0.956223         0.599319
 H        -1.932228        -0.041697         2.075788
 H        -3.771988         0.377751        -0.442316
 H        -1.308437         0.163835        -1.597473
 H        -2.192836         4.116988        -0.611191
 H        -3.446995         3.110709        -1.412898
 H        -3.371777         2.697747         1.351183
 H        -0.545609         3.027643         0.829232
 H        -0.960349         2.237142         2.262242
