19
Iteration:  4189
 O         0.577611         0.564474         0.664896
 C        -0.733809         0.993741         0.514020
 C        -1.834611         0.026919         0.872043
 C        -2.761546         0.838655         0.064236
 C        -1.536218         1.061898        -0.889373
 O        -1.610486         2.296501        -1.541283
 C        -2.676072         3.066720        -0.766564
 C        -2.723591         2.329770         0.599527
 C        -1.225595         2.258783         1.123917
 H         1.307469         1.202454         0.441347
 H        -1.492833        -0.923714         0.509299
 H        -1.831219        -0.006011         1.983247
 H        -3.702505         0.403301        -0.262344
 H        -1.380931         0.364866        -1.652049
 H        -2.397202         4.137936        -0.684299
 H        -3.653240         2.926642        -1.419383
 H        -3.480520         2.554491         1.270744
 H        -0.771160         3.118654         0.704408
 H        -0.993363         2.341202         2.195314
