19
Iteration:   946
 O         0.580003         0.653092         0.544050
 C        -0.773813         0.992496         0.555268
 C        -1.850691        -0.083828         1.029540
 C        -2.712457         0.773546         0.027835
 C        -1.508391         1.053714        -0.924745
 O        -1.683528         2.323019        -1.712616
 C        -2.545356         3.140427        -0.810818
 C        -2.652631         2.313388         0.627002
 C        -1.325985         2.269449         1.209667
 H         1.183856         1.089516         1.165381
 H        -1.764821        -1.170232         0.654470
 H        -1.928432        -0.153496         2.107940
 H        -3.705423         0.624716        -0.348916
 H        -1.254353         0.109889        -1.450669
 H        -2.117394         4.082183        -0.495230
 H        -3.491320         3.366102        -1.298479
 H        -3.564256         2.506181         1.292729
 H        -0.676722         3.252563         1.382063
 H        -1.410366         1.982507         2.380003
