19
Iteration:  1835charge 0 multiplicity 1
 O         0.624574         0.725916         0.396719
 C        -0.758084         0.998188         0.483532
 C        -1.891289        -0.088449         0.974501
 C        -2.790162         0.771100         0.110874
 C        -1.539928         0.975811        -0.819377
 O        -1.584872         2.347458        -1.442333
 C        -2.545332         3.063167        -0.813236
 C        -2.743138         2.332921         0.558004
 C        -1.271243         2.330976         1.142507
 H         1.087955         0.485248         1.177484
 H        -1.740309        -1.022057         0.527694
 H        -2.122969        -0.200853         2.085750
 H        -3.662438         0.224343        -0.340432
 H        -1.165978         0.113553        -1.376369
 H        -2.176312         4.151410        -0.632058
 H        -3.604768         3.110009        -1.358767
 H        -3.458455         2.720659         1.249510
 H        -0.743743         3.187305         0.866445
 H        -1.391705         2.275818         2.155234
