19
Iteration:  4290
 O         0.646396         0.650489         0.597823
 C        -0.783656         1.033449         0.461467
 C        -1.908743        -0.058880         0.952737
 C        -2.745706         0.853688         0.083325
 C        -1.496160         0.996974        -0.897829
 O        -1.603166         2.289314        -1.540628
 C        -2.626654         3.045539        -0.740978
 C        -2.648686         2.311362         0.584352
 C        -1.289433         2.313306         1.192759
 H         1.228778         1.162087         0.042995
 H        -1.839743        -1.033657         0.371302
 H        -2.356139        -0.227275         1.963384
 H        -3.677556         0.490889        -0.391101
 H        -1.436344         0.135880        -1.688362
 H        -2.302050         4.142736        -0.700311
 H        -3.604662         3.145766        -1.249577
 H        -3.411041         2.648557         1.289483
 H        -0.708090         3.192329         0.877685
 H        -1.406160         2.177027         2.218629
