19
Iteration:  4274charge 0 multiplicity 1
 O         0.579264         0.669792         0.573533
 C        -0.744013         0.924827         0.543024
 C        -1.831712        -0.077707         0.949242
 C        -2.783261         0.840313         0.043395
 C        -1.576868         1.090478        -0.807729
 O        -1.658606         2.290707        -1.552687
 C        -2.541484         3.092045        -0.795245
 C        -2.722407         2.323587         0.522694
 C        -1.242866         2.243857         1.182695
 H         0.966863         1.465555         0.154130
 H        -1.605230        -1.067433         0.605029
 H        -1.822284        -0.151346         2.026801
 H        -3.735380         0.473526        -0.345078
 H        -1.206389         0.359906        -1.459104
 H        -2.161590         4.069123        -0.669944
 H        -3.406375         3.170804        -1.445046
 H        -3.586393         2.658745         1.124379
 H        -0.625538         3.118366         0.927621
 H        -1.057476         2.100161         2.365620
