19
Iteration:  2273charge 0 multiplicity 1
 O         0.679767         0.666477         0.561420
 C        -0.730132         1.030649         0.528740
 C        -1.814230        -0.052292         0.974816
 C        -2.815016         0.760946         0.058874
 C        -1.600459         1.068870        -0.876927
 O        -1.630799         2.235425        -1.558220
 C        -2.567091         3.104438        -0.788595
 C        -2.762521         2.328282         0.605176
 C        -1.282656         2.243711         1.217323
 H         1.135477         1.344626        -0.006562
 H        -1.556037        -1.103578         0.587937
 H        -2.142965        -0.081061         2.032549
 H        -3.710317         0.425535        -0.402586
 H        -1.189019         0.310737        -1.622049
 H        -2.276765         4.138606        -0.858024
 H        -3.587443         3.185494        -1.410261
 H        -3.510629         2.769161         1.238658
 H        -0.841424         3.057851         0.738645
 H        -1.054311         2.517682         2.297041
