19
Iteration:  1193charge 0 multiplicity 1
 O         0.630439         0.818696         0.621128
 C        -0.785499         1.022658         0.501232
 C        -1.930170        -0.083880         0.966423
 C        -2.720237         0.862201         0.017961
 C        -1.551201         1.044043        -0.959904
 O        -1.601440         2.241450        -1.570560
 C        -2.553977         3.060551        -0.734929
 C        -2.645790         2.291681         0.604413
 C        -1.302407         2.247988         1.220855
 H         0.727081        -0.116181         0.315739
 H        -1.828681        -1.045539         0.409742
 H        -2.215378        -0.281181         2.003388
 H        -3.717686         0.569840        -0.418862
 H        -1.297508         0.201728        -1.706015
 H        -2.023820         4.034344        -0.665315
 H        -3.590402         3.292742        -1.197015
 H        -3.512040         2.649883         1.145471
 H        -0.730889         3.091261         0.927851
 H        -1.214071         2.125331         2.260086
