19
Iteration:  2196charge 0 multiplicity 1
 O         0.614733         0.572740         0.669664
 C        -0.776289         0.994804         0.542820
 C        -1.757642        -0.054641         0.934048
 C        -2.712862         0.704053        -0.009983
 C        -1.573277         1.038992        -0.888205
 O        -1.804404         2.300027        -1.644422
 C        -2.580195         3.111810        -0.782206
 C        -2.662340         2.393311         0.599056
 C        -1.214477         2.384300         1.196953
 H         1.155076         1.319792         0.442361
 H        -1.390868        -1.062250         0.666709
 H        -2.183108        -0.071746         1.948808
 H        -3.702309         0.319081        -0.139942
 H        -1.255362         0.332658        -1.697474
 H        -2.138448         4.085912        -0.775943
 H        -3.664690         2.900767        -1.220739
 H        -3.376667         2.648414         1.304052
 H        -0.632698         3.208360         0.899429
 H        -1.271860         2.297622         2.330670
