19
Iteration:  2152charge 0 multiplicity 1
 O         0.664590         0.706298         0.607576
 C        -0.695474         0.986155         0.516495
 C        -1.834393        -0.050805         0.926286
 C        -2.771828         0.785989         0.072469
 C        -1.612648         0.959432        -0.921501
 O        -1.705993         2.230013        -1.538874
 C        -2.580908         3.149652        -0.805663
 C        -2.733911         2.372433         0.564544
 C        -1.247412         2.278949         1.220947
 H         1.088943         1.472521         0.238449
 H        -1.841030        -1.067103         0.580295
 H        -1.956977        -0.108034         2.024598
 H        -3.490759         0.154474        -0.407231
 H        -1.370524         0.167116        -1.673420
 H        -1.959373         4.002072        -0.642096
 H        -3.615194         3.322950        -1.324111
 H        -3.469190         2.853178         1.114920
 H        -0.626646         3.139415         1.025956
 H        -1.196548         2.115638         2.355988
