19
Iteration:  1696charge 0 multiplicity 1
 O         0.536523         0.746853         0.356194
 C        -0.776693         0.985106         0.546452
 C        -1.916282        -0.065914         0.989613
 C        -2.752392         0.810042         0.050885
 C        -1.528561         1.001667        -0.890444
 O        -1.525823         2.276015        -1.482612
 C        -2.545855         3.050510        -0.744860
 C        -2.658416         2.259655         0.574160
 C        -1.349947         2.352283         1.231397
 H         1.137773         1.030272         1.095776
 H        -1.671453        -1.042376         0.662858
 H        -2.235438        -0.013932         2.059343
 H        -3.652565         0.425271        -0.305684
 H        -1.248316         0.133237        -1.510543
 H        -2.124409         4.023053        -0.600555
 H        -3.458374         3.156435        -1.429437
 H        -3.495579         2.641548         1.073301
 H        -0.663364         3.203054         0.844445
 H        -1.238086         2.175758         2.312964
