19
Iteration:  3312charge 0 multiplicity 1
 O         0.690765         0.663560         0.560087
 C        -0.695045         0.923191         0.504491
 C        -1.883560        -0.137403         0.943351
 C        -2.749032         0.781708         0.065502
 C        -1.542128         1.034607        -0.866063
 O        -1.632188         2.352049        -1.526407
 C        -2.685647         3.094826        -0.765191
 C        -2.749000         2.308905         0.602336
 C        -1.228407         2.357016         1.136448
 H         1.083539         1.451427         0.074115
 H        -1.935149        -1.149297         0.556524
 H        -2.151372        -0.120796         2.018373
 H        -3.753535         0.500566        -0.210548
 H        -1.371833         0.324745        -1.738867
 H        -2.251140         4.094344        -0.596029
 H        -3.593517         3.005634        -1.348737
 H        -3.537365         2.585137         1.385142
 H        -0.585440         3.168688         0.828952
 H        -1.258281         2.350520         2.316749
