19
Iteration:  3125
 O         0.575738         0.591023         0.673392
 C        -0.756858         0.949942         0.507335
 C        -1.744655        -0.095554         0.957415
 C        -2.752496         0.812203         0.027605
 C        -1.622706         1.149479        -0.877056
 O        -1.745302         2.391188        -1.509149
 C        -2.627494         3.119464        -0.806796
 C        -2.673886         2.200911         0.528514
 C        -1.152772         2.270151         1.118155
 H         1.135493         1.321407         0.372202
 H        -1.585290        -1.195761         0.649258
 H        -1.878737        -0.056020         2.026071
 H        -3.696209         0.481035        -0.401151
 H        -1.257181         0.514434        -1.648635
 H        -2.281448         4.153418        -0.762972
 H        -3.663121         2.974717        -1.278515
 H        -3.353115         2.436567         1.370851
 H        -0.667704         3.202250         0.619994
 H        -0.891900         2.387788         2.240596
