19
Iteration:  1494charge 0 multiplicity 1
 O         0.570697         0.617641         0.647207
 C        -0.785628         0.979089         0.503070
 C        -1.860355        -0.001832         0.931407
 C        -2.714293         0.838066         0.014258
 C        -1.501378         1.045647        -0.939954
 O        -1.701846         2.269705        -1.622348
 C        -2.605576         3.029286        -0.688649
 C        -2.652450         2.297494         0.537132
 C        -1.202026         2.317037         1.174577
 H         1.068383         1.321766         1.174585
 H        -1.631927        -1.002605         0.595876
 H        -2.289625        -0.068842         1.900011
 H        -3.815929         0.629386        -0.267100
 H        -1.051844         0.265434        -1.526942
 H        -2.285374         4.123482        -0.613004
 H        -3.576963         3.269492        -1.300062
 H        -3.406849         2.606015         1.319410
 H        -0.608372         3.268357         0.976406
 H        -1.259640         2.143130         2.227431
