19
Iteration:  1054charge 0 multiplicity 1
 O         0.574250         0.833692         0.578073
 C        -0.818116         0.985102         0.552166
 C        -1.849531        -0.118570         0.986609
 C        -2.826988         0.773844         0.077635
 C        -1.535455         1.086505        -0.907646
 O        -1.670936         2.274032        -1.604281
 C        -2.369928         3.089812        -0.791749
 C        -2.650400         2.294426         0.590678
 C        -1.336276         2.237627         1.228126
 H         0.957300         0.170608        -0.076232
 H        -1.527542        -1.160030         0.629738
 H        -2.159180        -0.155648         1.962318
 H        -3.713021         0.553043        -0.510778
 H        -1.218606         0.215280        -1.546405
 H        -2.001344         4.155908        -0.697972
 H        -3.428084         3.254603        -1.333742
 H        -3.544617         2.784203         1.055758
 H        -0.634299         3.106825         1.047723
 H        -1.361377         1.992052         2.336170
