19
Iteration:  1517
 O         0.622993         0.693582         0.589992
 C        -0.754275         0.922693         0.503294
 C        -1.831997        -0.036605         0.982206
 C        -2.756247         0.775355         0.014157
 C        -1.604447         1.077652        -0.863581
 O        -1.704697         2.268173        -1.649015
 C        -2.470215         3.137956        -0.779708
 C        -2.697007         2.301685         0.567210
 C        -1.276214         2.252696         1.230476
 H         1.140102         1.105494         1.267647
 H        -1.737912        -1.047339         0.668062
 H        -1.967566        -0.047119         2.092781
 H        -3.710073         0.253641        -0.438768
 H        -1.259781         0.313027        -1.562976
 H        -2.088841         4.234177        -0.799739
 H        -3.525857         3.440427        -1.295853
 H        -3.605862         2.599806         1.151800
 H        -0.735462         3.232644         1.005940
 H        -1.333184         2.163832         2.272882
