19
Iteration:   514
 O         0.633563         0.509525         0.788752
 C        -0.658148         0.961744         0.489326
 C        -1.882139         0.048091         0.917087
 C        -2.716062         0.924257         0.027438
 C        -1.512268         1.052110        -0.953706
 O        -1.684944         2.397516        -1.505321
 C        -2.747480         2.953861        -0.803502
 C        -2.676107         2.309053         0.588827
 C        -1.174608         2.319048         1.054566
 H         1.221942         1.261240         0.616486
 H        -1.826496        -0.933066         0.555927
 H        -2.142320        -0.216694         1.992142
 H        -3.767554         0.599223        -0.383109
 H        -1.624778         0.184960        -1.697183
 H        -2.606645         4.076904        -0.769035
 H        -3.746682         2.747763        -1.351895
 H        -3.433447         2.322365         1.237458
 H        -0.705026         3.158052         0.526533
 H        -0.955838         2.287028         2.178769
