19
Iteration:  1055
 O         0.565407         0.843409         0.579361
 C        -0.815749         0.987597         0.543624
 C        -1.851735        -0.130152         0.984674
 C        -2.824672         0.776699         0.075825
 C        -1.536556         1.088000        -0.909437
 O        -1.669502         2.261774        -1.600338
 C        -2.367581         3.096648        -0.783666
 C        -2.640364         2.294933         0.590649
 C        -1.344586         2.232855         1.222870
 H         0.959523         0.171668        -0.044460
 H        -1.518993        -1.149669         0.654245
 H        -2.126650        -0.173773         1.992781
 H        -3.719887         0.565248        -0.503613
 H        -1.246084         0.236777        -1.573789
 H        -1.999092         4.154575        -0.700963
 H        -3.427593         3.272001        -1.340261
 H        -3.553631         2.805452         1.032851
 H        -0.600511         3.113270         1.028808
 H        -1.345217         1.987459         2.372381
