19
Iteration:  4224charge 0 multiplicity 1
 O         0.589657         0.651868         0.576948
 C        -0.698690         0.972194         0.522183
 C        -1.893604        -0.011508         0.946247
 C        -2.766783         0.803749         0.038754
 C        -1.521050         1.033339        -0.901616
 O        -1.645172         2.290705        -1.572532
 C        -2.636051         3.107898        -0.753539
 C        -2.697950         2.335869         0.575625
 C        -1.233959         2.214031         1.206128
 H         1.176413         1.449383         0.688922
 H        -1.579877        -1.026927         0.620939
 H        -2.057740        -0.107890         2.047941
 H        -3.739073         0.476756        -0.305889
 H        -1.257783         0.142987        -1.541679
 H        -2.134961         4.125616        -0.877391
 H        -3.685621         3.225806        -1.345353
 H        -3.393762         2.685463         1.298027
 H        -0.554216         2.991493         0.784702
 H        -1.326148         2.302726         2.226139
