19
Iteration:  1487charge 0 multiplicity 1
 O         0.571773         0.604217         0.662940
 C        -0.734087         0.933293         0.489041
 C        -1.868022        -0.012150         0.915230
 C        -2.727863         0.863134        -0.034366
 C        -1.520398         1.072267        -0.884832
 O        -1.674936         2.252178        -1.598687
 C        -2.626005         3.062530        -0.710199
 C        -2.649175         2.329493         0.621169
 C        -1.234706         2.337218         1.120627
 H         1.195639         1.262575         1.042675
 H        -1.754561        -0.985691         0.430739
 H        -2.043676         0.038835         2.103682
 H        -3.671065         0.405633        -0.387530
 H        -1.134588         0.345580        -1.642681
 H        -2.211534         4.050645        -0.659242
 H        -3.648783         2.887068        -1.115420
 H        -3.546338         2.568191         1.161490
 H        -0.657337         3.224841         0.894323
 H        -1.370772         2.284039         2.214025
