19
Iteration:   972
 O         0.598595         0.580375         0.727265
 C        -0.730963         0.985326         0.481803
 C        -1.852734         0.023329         0.829203
 C        -2.734054         0.794213         0.015815
 C        -1.520966         1.046864        -0.906497
 O        -1.671694         2.334272        -1.455163
 C        -2.660269         3.037315        -0.777401
 C        -2.665718         2.359446         0.572896
 C        -1.237115         2.262874         1.096491
 H         1.270758         1.268464         0.599141
 H        -1.760228        -0.947164         0.413179
 H        -2.085935        -0.144167         2.009921
 H        -3.691970         0.478680        -0.455458
 H        -1.417400         0.167276        -1.517760
 H        -2.332173         4.054649        -0.533329
 H        -3.628300         2.975235        -1.243163
 H        -3.501674         2.796349         1.148436
 H        -0.669215         3.022678         0.657167
 H        -1.008810         2.395695         2.099831
