19
Iteration:   320
 O         0.590618         0.721014         0.599990
 C        -0.763741         0.938809         0.512302
 C        -1.811457        -0.071979         0.998047
 C        -2.775788         0.842724         0.116662
 C        -1.579971         0.985592        -0.898269
 O        -1.659795         2.305276        -1.581248
 C        -2.585905         3.087123        -0.800235
 C        -2.661010         2.337262         0.455403
 C        -1.206545         2.227741         1.146537
 H         0.898947         1.188099         1.379464
 H        -1.863502        -1.009278         0.554723
 H        -1.912173        -0.050213         2.116921
 H        -3.767232         0.414500        -0.289546
 H        -1.385734         0.232956        -1.756296
 H        -2.205593         4.074811        -0.534588
 H        -3.527428         3.374720        -1.397855
 H        -3.384259         2.795317         1.195073
 H        -0.595270         3.086575         1.079650
 H        -1.352341         2.119584         2.252785
