19
Iteration:  3714charge 0 multiplicity 1
 O         0.599688         0.556244         0.645336
 C        -0.720925         0.973493         0.507328
 C        -1.855780         0.018661         1.026661
 C        -2.776666         0.820887         0.042838
 C        -1.491284         1.020516        -0.877519
 O        -1.649848         2.383784        -1.589239
 C        -2.700888         3.016459        -0.744238
 C        -2.665644         2.264291         0.518226
 C        -1.215390         2.320073         1.117113
 H         1.202829         1.234672         0.331044
 H        -1.528978        -0.885162         0.518174
 H        -2.069223        -0.063744         2.157005
 H        -3.659910         0.438080        -0.433256
 H        -1.435161         0.437503        -1.812113
 H        -2.536177         4.109325        -0.490929
 H        -3.729113         3.182945        -1.281950
 H        -3.322034         2.564579         1.344741
 H        -0.567772         3.168230         0.816224
 H        -1.248515         2.371905         2.143912
