19
Iteration:  2309charge 0 multiplicity 1
 O         0.577028         0.707347         0.662458
 C        -0.728725         1.053885         0.450550
 C        -1.751016        -0.007091         0.970023
 C        -2.740812         0.839060         0.040615
 C        -1.524922         1.041044        -0.931092
 O        -1.800801         2.164869        -1.620153
 C        -2.533165         3.161275        -0.800678
 C        -2.706954         2.341300         0.611594
 C        -1.275436         2.165011         1.253554
 H         1.231641         1.294485         0.220129
 H        -1.667248        -1.007201         0.484634
 H        -2.006275        -0.095387         1.992003
 H        -3.668714         0.309640        -0.263791
 H        -1.230541         0.280109        -1.642974
 H        -1.877249         4.065401        -0.603312
 H        -3.558187         3.147864        -1.377605
 H        -3.356975         2.694795         1.337090
 H        -0.671970         3.037925         0.939055
 H        -1.305389         1.999303         2.376993
