19
Iteration:  3966
 O         0.631176         0.646113         0.558064
 C        -0.707858         0.985004         0.445206
 C        -1.895951        -0.042732         0.944016
 C        -2.837452         0.830826         0.176475
 C        -1.514993         1.008024        -0.917618
 O        -1.642959         2.279566        -1.503692
 C        -2.528050         3.032740        -0.781817
 C        -2.656698         2.320944         0.556301
 C        -1.307639         2.326982         1.188937
 H         1.066517         1.528759         0.355675
 H        -1.642047        -0.960302         0.373835
 H        -2.253803        -0.239436         1.964352
 H        -3.693867         0.403803        -0.250273
 H        -1.290927         0.293137        -1.749419
 H        -2.070189         3.995443        -0.573080
 H        -3.400125         3.270516        -1.351067
 H        -3.614260         2.719880         1.025428
 H        -1.033344         3.316360         0.922990
 H        -1.308281         2.131363         2.350465
