19
Iteration:   765charge 0 multiplicity 1
 O         0.551032         0.705600         0.403670
 C        -0.820158         1.018620         0.597334
 C        -1.817572        -0.054445         0.924484
 C        -2.754966         0.789025         0.086344
 C        -1.555056         1.040512        -0.757930
 O        -1.564541         2.182111        -1.534396
 C        -2.454707         3.126544        -0.755856
 C        -2.698122         2.364049         0.506950
 C        -1.375063         2.238982         1.228772
 H         0.897897         1.541770        -0.009951
 H        -1.536232        -0.970187         0.614016
 H        -2.215720        -0.133250         1.941490
 H        -3.684438         0.317773        -0.403455
 H        -1.092117         0.275627        -1.405421
 H        -1.999222         4.131259        -0.551876
 H        -3.373362         3.253667        -1.284997
 H        -3.536253         2.741082         1.064015
 H        -0.694052         3.060545         1.152226
 H        -1.657673         2.111076         2.286152
