19
Iteration:  4141
 O         0.613193         0.637073         0.602924
 C        -0.738921         0.943931         0.494687
 C        -1.874039        -0.005619         1.001316
 C        -2.753994         0.829763         0.024845
 C        -1.532166         1.033433        -0.840441
 O        -1.639323         2.321476        -1.586643
 C        -2.648589         3.089640        -0.733215
 C        -2.724851         2.286298         0.555283
 C        -1.215206         2.280547         1.146711
 H         1.208506         1.228946         0.134445
 H        -1.721789        -0.991891         0.490195
 H        -2.194978        -0.198396         2.032915
 H        -3.703163         0.471548        -0.433890
 H        -1.083504         0.223589        -1.495310
 H        -2.113201         3.998414        -0.895346
 H        -3.562341         3.058432        -1.304185
 H        -3.488362         2.616783         1.381176
 H        -0.643626         3.233061         0.957816
 H        -1.243906         2.342475         2.356666
