19
Iteration:  1296charge 0 multiplicity 1
 O         0.581477         0.600503         0.692183
 C        -0.764265         1.030638         0.497666
 C        -1.836400         0.007869         0.956030
 C        -2.766374         0.856620         0.026504
 C        -1.507442         1.080084        -0.920892
 O        -1.584623         2.391557        -1.445915
 C        -2.678267         3.022631        -0.822172
 C        -2.703759         2.278964         0.577780
 C        -1.201185         2.288953         1.059897
 H         0.775902        -0.116226         0.108796
 H        -1.617481        -1.054651         0.569812
 H        -2.108257        -0.075260         2.050691
 H        -3.649199         0.351156        -0.298560
 H        -1.127175         0.281709        -1.555882
 H        -2.667611         4.126940        -0.724220
 H        -3.587787         2.749379        -1.421056
 H        -3.547839         2.603130         1.275732
 H        -0.538767         3.079038         0.738476
 H        -1.201363         2.221693         2.099455
