19
Iteration:   758charge 0 multiplicity 1
 O         0.576001         0.698602         0.370059
 C        -0.813572         1.014834         0.589014
 C        -1.855237        -0.035757         0.999594
 C        -2.813198         0.802040         0.056674
 C        -1.522398         1.024974        -0.780617
 O        -1.554952         2.216255        -1.565523
 C        -2.440689         3.115526        -0.747047
 C        -2.746025         2.300360         0.533268
 C        -1.350688         2.278095         1.267032
 H         1.009331         1.509707         0.094885
 H        -1.612065        -1.026649         0.390640
 H        -2.096837        -0.150309         2.043461
 H        -3.587547         0.294549        -0.478121
 H        -1.179607         0.166913        -1.325932
 H        -1.988164         4.080199        -0.608261
 H        -3.268396         3.273865        -1.450437
 H        -3.587226         2.597903         1.113651
 H        -0.718742         3.221399         1.200962
 H        -1.622047         2.207536         2.402492
