19
Iteration:  3849charge 0 multiplicity 1
 O         0.620649         0.591638         0.656004
 C        -0.688081         0.979793         0.458418
 C        -1.883526        -0.000191         0.913180
 C        -2.772747         0.829321         0.064392
 C        -1.536505         1.049013        -0.894393
 O        -1.686274         2.298629        -1.475823
 C        -2.641662         2.995859        -0.805720
 C        -2.702478         2.344215         0.550973
 C        -1.205013         2.297098         1.174344
 H         1.186429         1.293465         0.333798
 H        -1.935627        -0.993041         0.369080
 H        -1.999024         0.097745         1.993426
 H        -3.640763         0.390712        -0.508433
 H        -0.988440         0.498456        -1.692251
 H        -2.315799         4.106842        -0.688740
 H        -3.708568         3.162429        -1.293977
 H        -3.469412         2.745057         1.292828
 H        -0.661550         3.225006         0.897960
 H        -1.074883         2.097883         2.159268
