19
Iteration:   411
 O         0.617899         0.747520         0.690982
 C        -0.744942         1.016221         0.556877
 C        -1.881910        -0.076241         0.871826
 C        -2.822304         0.836495         0.063298
 C        -1.597628         0.974088        -0.906188
 O        -1.686239         2.229607        -1.566149
 C        -2.480549         3.065086        -0.787967
 C        -2.630769         2.300237         0.585384
 C        -1.293279         2.287846         1.149464
 H         1.157442         1.072808        -0.073795
 H        -1.584915        -0.978883         0.260130
 H        -2.185540        -0.219953         1.834557
 H        -3.766698         0.467879        -0.177629
 H        -1.175994         0.202126        -1.451522
 H        -1.954919         4.105664        -0.628199
 H        -3.517027         3.320181        -1.270521
 H        -3.419648         2.815880         1.234951
 H        -0.675393         3.234436         0.942859
 H        -1.187211         2.314500         2.218687
