19
Iteration:  1088charge 0 multiplicity 1
 O         0.713231         0.916148         0.633517
 C        -0.707064         0.955403         0.486626
 C        -1.955276        -0.047108         0.913834
 C        -2.865268         0.849001         0.070244
 C        -1.621995         1.026335        -0.912354
 O        -1.647662         2.224916        -1.567966
 C        -2.409728         3.088477        -0.756006
 C        -2.704278         2.249998         0.595354
 C        -1.325005         2.183425         1.165862
 H         1.061341        -0.016759         0.663970
 H        -1.623452        -1.024063         0.458260
 H        -2.192744        -0.201721         1.920523
 H        -3.856589         0.560352        -0.287566
 H        -1.506357         0.342326        -1.778320
 H        -1.834552         4.031472        -0.558938
 H        -3.394969         3.247376        -1.414306
 H        -3.506136         2.826944         1.171043
 H        -0.654499         3.123869         0.976358
 H        -1.292285         2.012817         2.311704
