19
Iteration:   665
 O         0.505660         0.479843         0.808695
 C        -0.697757         1.000262         0.448282
 C        -1.784061        -0.013625         0.962111
 C        -2.625634         0.796176         0.011699
 C        -1.486419         1.147454        -0.917432
 O        -1.773862         2.358335        -1.575378
 C        -2.735550         3.071801        -0.815985
 C        -2.702456         2.294176         0.538923
 C        -1.132869         2.317517         1.101101
 H         1.250643         0.965058         0.387713
 H        -1.676500        -1.021987         0.711025
 H        -2.013886         0.293795         1.993300
 H        -3.656658         0.356423        -0.170157
 H        -1.316096         0.354816        -1.735345
 H        -2.451970         4.154104        -0.727719
 H        -3.680856         2.995130        -1.253749
 H        -3.443010         2.544022         1.385845
 H        -0.409630         3.091520         0.807085
 H        -1.155031         2.304669         2.200332
