19
Iteration:   495
 O         0.584409         0.617906         0.649872
 C        -0.791092         0.940620         0.527610
 C        -1.910550        -0.080232         0.929427
 C        -2.787121         0.770103         0.027779
 C        -1.537238         1.090764        -0.883389
 O        -1.601491         2.335008        -1.517878
 C        -2.720464         3.063030        -0.796237
 C        -2.616321         2.325174         0.568514
 C        -1.150455         2.349934         1.097020
 H         1.041067         1.454561         0.688205
 H        -1.580403        -1.108935         0.680711
 H        -2.050310        -0.091500         2.074116
 H        -3.693042         0.322107        -0.381641
 H        -1.046972         0.357348        -1.568682
 H        -2.536763         4.097392        -0.754752
 H        -3.628111         2.832121        -1.299596
 H        -3.337561         2.827219         1.281532
 H        -0.458987         2.985657         0.603497
 H        -1.095334         2.379765         2.190899
