19
Iteration:  2275
 O         0.684918         0.668046         0.568201
 C        -0.720260         1.047511         0.522116
 C        -1.804574        -0.071193         0.987131
 C        -2.839155         0.762987         0.043707
 C        -1.605660         1.057838        -0.878979
 O        -1.644468         2.232271        -1.577911
 C        -2.548271         3.100944        -0.786739
 C        -2.760732         2.328753         0.602849
 C        -1.285505         2.248695         1.245982
 H         1.132066         1.295118         0.004380
 H        -1.589659        -1.113220         0.581893
 H        -2.070210        -0.097151         1.994128
 H        -3.735897         0.432559        -0.438824
 H        -1.193186         0.366682        -1.637907
 H        -2.292362         4.189663        -0.809953
 H        -3.592777         3.180670        -1.383979
 H        -3.417192         2.790281         1.221209
 H        -0.840358         3.070257         0.745099
 H        -1.093355         2.583429         2.325711
