19
Iteration:  4901charge 0 multiplicity 1
 O         0.596244         0.606050         0.563963
 C        -0.724217         0.998882         0.487759
 C        -1.875877        -0.020175         1.023184
 C        -2.850270         0.853442         0.047571
 C        -1.511133         1.039636        -0.826412
 O        -1.589942         2.341207        -1.571638
 C        -2.619515         3.086766        -0.802713
 C        -2.667349         2.306531         0.541951
 C        -1.249856         2.225772         1.183067
 H         1.236112         1.229346         0.144246
 H        -1.884849        -1.014680         0.481454
 H        -2.125802        -0.093593         2.136281
 H        -3.819712         0.497236        -0.366563
 H        -1.061244         0.262843        -1.481663
 H        -2.253807         4.096545        -0.640897
 H        -3.639303         2.928931        -1.287638
 H        -3.235977         2.603762         1.392893
 H        -0.728442         3.144982         0.874386
 H        -1.423600         2.115267         2.290021
