19
Iteration:  3780
 O         0.611206         0.685921         0.581316
 C        -0.780874         0.950844         0.488878
 C        -1.806484        -0.060300         0.973253
 C        -2.773300         0.884712         0.001931
 C        -1.548540         1.011185        -0.929398
 O        -1.633038         2.278681        -1.519487
 C        -2.597319         3.037568        -0.813463
 C        -2.694447         2.323202         0.596058
 C        -1.246074         2.263619         1.267177
 H         1.105716         1.465650         0.228237
 H        -1.825369        -0.951836         0.400159
 H        -1.934805        -0.090254         2.069263
 H        -3.668943         0.536000        -0.370897
 H        -1.596546         0.035529        -1.429930
 H        -2.114561         4.036268        -0.811948
 H        -3.599274         3.267790        -1.329647
 H        -3.521859         2.762973         1.180183
 H        -0.688741         3.241992         0.996051
 H        -1.255515         2.144765         2.341596
