19
Iteration:  2614
 O         0.555491         0.758422         0.491910
 C        -0.810593         0.963090         0.532511
 C        -1.909195        -0.005968         0.968179
 C        -2.796456         0.781520         0.114976
 C        -1.511135         0.974887        -0.884164
 O        -1.572064         2.296439        -1.555889
 C        -2.525869         3.017662        -0.788979
 C        -2.684005         2.260503         0.565018
 C        -1.215666         2.312541         1.192774
 H         0.899792         1.646530         0.296557
 H        -1.653565        -1.066499         0.554581
 H        -2.128327        -0.127432         2.051823
 H        -3.835935         0.346594        -0.051103
 H        -1.219201         0.208663        -1.634862
 H        -2.134658         4.048283        -0.691263
 H        -3.603705         3.177877        -1.219816
 H        -3.445861         2.663717         1.231971
 H        -0.693318         3.223735         1.005379
 H        -1.298514         2.164922         2.345922
