19
Iteration:  1131charge 0 multiplicity 1
 O         0.638227         0.551794         0.684778
 C        -0.745396         1.077874         0.508104
 C        -1.852604         0.010260         0.960376
 C        -2.754544         0.825239        -0.000527
 C        -1.498737         1.126884        -0.894847
 O        -1.626767         2.374770        -1.521821
 C        -2.686805         3.002108        -0.779779
 C        -2.667990         2.272404         0.511945
 C        -1.252403         2.324380         1.174309
 H         0.593365        -0.227882         0.097252
 H        -1.719265        -1.128122         0.620854
 H        -2.021400        -0.071985         2.000734
 H        -3.683267         0.411907        -0.409990
 H        -1.141373         0.229393        -1.468975
 H        -2.377745         4.072119        -0.718848
 H        -3.663365         2.870824        -1.331269
 H        -3.586057         2.590062         1.148274
 H        -0.766489         3.227371         0.703750
 H        -1.126418         2.358330         2.275485
