19
Iteration:  4784
 O         0.543935         0.554172         0.694695
 C        -0.741537         0.935414         0.497544
 C        -1.798256        -0.057782         0.949079
 C        -2.804844         0.830111         0.035421
 C        -1.541251         1.045560        -0.853830
 O        -1.645623         2.392076        -1.580073
 C        -2.660111         3.129530        -0.714814
 C        -2.640137         2.295662         0.544835
 C        -1.172503         2.313191         1.023922
 H         1.144206         1.283660         0.562940
 H        -1.519545        -1.100573         0.568428
 H        -2.195146        -0.308984         1.931989
 H        -3.750021         0.392542        -0.196729
 H        -1.496825         0.166551        -1.514258
 H        -2.233550         4.097427        -0.545479
 H        -3.530799         3.040964        -1.286320
 H        -3.448747         2.806399         1.184110
 H        -0.565636         3.219840         0.750805
 H        -1.289630         2.178901         2.198314
