19
Iteration:  1869charge 0 multiplicity 1
 O         0.601672         0.711546         0.457416
 C        -0.794396         1.032968         0.477469
 C        -1.907731        -0.034034         0.962972
 C        -2.746464         0.781686         0.068076
 C        -1.572271         0.965487        -0.885577
 O        -1.596904         2.317933        -1.517338
 C        -2.548884         3.012691        -0.724344
 C        -2.660846         2.319827         0.594677
 C        -1.261490         2.289772         1.182563
 H         1.020526         1.328661         1.045237
 H        -1.906687        -1.033278         0.620736
 H        -2.194246         0.033041         2.037498
 H        -3.660212         0.499608        -0.437850
 H        -1.149127         0.232301        -1.574548
 H        -2.209122         4.104567        -0.705746
 H        -3.540125         3.018244        -1.339934
 H        -3.450557         2.572580         1.232401
 H        -0.678879         3.142558         1.066408
 H        -1.216979         2.026418         2.172309
