19
Iteration:   571charge 0 multiplicity 1
 O         0.640427         0.705944         0.562982
 C        -0.713332         1.017158         0.520428
 C        -1.880510        -0.038005         0.973766
 C        -2.836134         0.857627         0.006015
 C        -1.500722         1.015181        -0.860112
 O        -1.667390         2.188864        -1.593468
 C        -2.525132         3.067772        -0.694333
 C        -2.693553         2.364715         0.558924
 C        -1.322232         2.247614         1.166536
 H         1.260999         1.411004         0.245226
 H        -1.791823        -1.035300         0.558725
 H        -2.135790         0.136873         2.041790
 H        -3.823607         0.496858        -0.308102
 H        -1.137861         0.156727        -1.457001
 H        -2.028920         4.018307        -0.560373
 H        -3.515143         3.149703        -1.265693
 H        -3.562236         2.614797         1.085056
 H        -0.691481         3.113125         1.078366
 H        -1.299725         2.050056         2.286207
