19
Iteration:  1308charge 0 multiplicity 1
 O         0.570195         0.591092         0.669447
 C        -0.739244         0.953619         0.449632
 C        -1.827264         0.047384         0.905407
 C        -2.737462         0.785516        -0.012111
 C        -1.509208         1.027454        -0.844771
 O        -1.525125         2.396098        -1.479225
 C        -2.728516         3.027876        -0.766727
 C        -2.729087         2.276140         0.565803
 C        -1.219837         2.407815         1.135941
 H         0.639966        -0.336255         0.293318
 H        -1.585449        -1.018370         0.573704
 H        -2.057905         0.131257         2.074396
 H        -3.720046         0.533213        -0.345241
 H        -1.416493         0.351705        -1.633283
 H        -2.423174         4.057691        -0.945961
 H        -3.709903         2.837393        -1.242237
 H        -3.557644         2.480910         1.321304
 H        -0.862870         3.405594         0.770979
 H        -0.949039         2.277149         2.170477
