19
Iteration:  2053charge 0 multiplicity 1
 O         0.592370         0.613122         0.737187
 C        -0.679302         1.051904         0.479299
 C        -1.803383         0.056060         0.846749
 C        -2.771228         0.781804        -0.002483
 C        -1.605787         1.047642        -0.900800
 O        -1.778268         2.260347        -1.581077
 C        -2.621373         3.029099        -0.716977
 C        -2.563523         2.278580         0.564986
 C        -1.216809         2.310539         1.162481
 H         1.229321         1.316138         0.474037
 H        -1.570922        -0.838401         0.380210
 H        -2.073087        -0.245211         1.923082
 H        -3.742696         0.399074        -0.377344
 H        -1.405096         0.160053        -1.490261
 H        -2.227000         4.009385        -0.508708
 H        -3.640059         3.294529        -1.159494
 H        -3.255772         2.685056         1.260710
 H        -0.654415         3.158533         0.712879
 H        -1.367926         2.230905         2.362869
