19
Iteration:   393charge 0 multiplicity 1
 O         0.644382         0.609130         0.750524
 C        -0.733643         0.922429         0.436499
 C        -1.826622         0.009285         0.992795
 C        -2.754312         0.843740         0.047171
 C        -1.575279         1.047726        -0.909559
 O        -1.586286         2.326308        -1.551005
 C        -2.686272         3.079673        -0.785910
 C        -2.750593         2.283105         0.527281
 C        -1.226592         2.310978         1.118386
 H         1.171551         1.025122         0.017164
 H        -1.732834        -1.020845         0.612079
 H        -1.911869        -0.088544         2.158186
 H        -3.757129         0.459568        -0.319806
 H        -1.581567         0.243659        -1.715022
 H        -2.348325         4.107791        -0.744762
 H        -3.644247         3.128925        -1.286787
 H        -3.531528         2.629944         1.132828
 H        -0.516414         3.136005         0.868829
 H        -1.249871         2.264156         2.244785
