19
Iteration:  3411charge 0 multiplicity 1
 O         0.576991         0.613106         0.606445
 C        -0.803980         0.944330         0.595735
 C        -1.767720        -0.097962         0.938018
 C        -2.786689         0.821868         0.097973
 C        -1.600986         1.087372        -0.943710
 O        -1.629274         2.410387        -1.599098
 C        -2.680246         3.067381        -0.774380
 C        -2.623006         2.276274         0.598564
 C        -1.186774         2.269064         1.113223
 H         1.041886         1.517920         0.584292
 H        -1.474524        -0.979934         0.488210
 H        -1.880510        -0.072535         2.048336
 H        -3.747795         0.388875        -0.122521
 H        -1.105457         0.256964        -1.574237
 H        -2.565111         4.184783        -0.819983
 H        -3.704826         2.853866        -1.260974
 H        -3.375064         2.575983         1.421322
 H        -0.555016         2.921856         0.646776
 H        -1.221969         2.372784         2.238235
