19
Iteration:  1457
 O         0.571071         0.559586         0.679326
 C        -0.724617         0.958529         0.531698
 C        -1.841930        -0.044672         0.966159
 C        -2.785768         0.808890         0.067267
 C        -1.563900         1.089212        -0.892677
 O        -1.536303         2.391334        -1.469859
 C        -2.710008         3.042139        -0.827552
 C        -2.701814         2.322785         0.520515
 C        -1.192154         2.332658         1.035330
 H         1.080625         1.192858         0.094782
 H        -1.747464        -1.118695         0.562140
 H        -1.960092        -0.312588         2.073658
 H        -3.719743         0.357637        -0.056051
 H        -1.163594         0.422543        -1.730544
 H        -2.490512         4.094671        -0.627934
 H        -3.587331         2.930337        -1.402328
 H        -3.584215         2.588530         1.120777
 H        -0.488682         3.149548         0.874814
 H        -1.465652         2.184994         2.209151
