19
Iteration:  2143charge 0 multiplicity 1
 O         0.638732         0.718462         0.552810
 C        -0.809716         0.973166         0.509421
 C        -1.813871        -0.072169         1.024075
 C        -2.779555         0.796455         0.075051
 C        -1.605721         1.032771        -0.864743
 O        -1.626373         2.252846        -1.549315
 C        -2.621627         3.107456        -0.807747
 C        -2.712281         2.320262         0.480168
 C        -1.200353         2.264311         1.248257
 H         1.136662         1.468620         0.246380
 H        -1.553821        -1.003820         0.445154
 H        -2.049058        -0.271968         2.020733
 H        -3.787130         0.470944        -0.177868
 H        -1.360782         0.254047        -1.633130
 H        -2.071140         4.092759        -0.665486
 H        -3.501535         3.362217        -1.406182
 H        -3.460275         2.584223         1.148765
 H        -0.647721         3.100893         0.845360
 H        -1.202834         2.148441         2.421453
