19
Iteration:  3276charge 0 multiplicity 1
 O         0.620464         0.540018         0.616222
 C        -0.700576         1.022226         0.426066
 C        -1.813091        -0.017343         0.921786
 C        -2.731301         0.769052         0.043998
 C        -1.597861         1.081122        -0.968337
 O        -1.624069         2.360688        -1.565091
 C        -2.678625         3.005935        -0.721701
 C        -2.739529         2.239235         0.674443
 C        -1.229176         2.390964         1.184299
 H         1.341763         1.188168         0.440592
 H        -1.667193        -1.169564         0.714553
 H        -2.062350         0.127697         1.991266
 H        -3.765920         0.493000        -0.186739
 H        -1.282843         0.303666        -1.592049
 H        -2.413315         4.166324        -0.575079
 H        -3.579805         3.115823        -1.359532
 H        -3.553692         2.589334         1.279684
 H        -0.880136         3.400412         0.822280
 H        -1.011917         2.290693         2.192442
