19
Iteration:  2391charge 0 multiplicity 1
 O         0.651743         0.541412         0.552880
 C        -0.771930         0.943114         0.469417
 C        -1.773269         0.026795         0.985051
 C        -2.796327         0.832604         0.049281
 C        -1.511555         1.061805        -0.867481
 O        -1.644245         2.343545        -1.502039
 C        -2.707283         3.052408        -0.829851
 C        -2.750743         2.331670         0.555316
 C        -1.201387         2.289469         1.207557
 H         1.009885         1.405752         0.654607
 H        -1.521973        -0.959509         0.778353
 H        -1.944168         0.085160         2.071124
 H        -3.694735         0.348708        -0.313705
 H        -0.954178         0.305584        -1.481984
 H        -2.657836         4.121708        -0.894153
 H        -3.657896         2.842506        -1.324577
 H        -3.661856         2.530907         1.264542
 H        -0.707657         3.114696         0.604215
 H        -0.995067         2.403859         2.269510
