19
Iteration:   483
 O         0.513460         0.656375         0.546360
 C        -0.804115         0.972183         0.548849
 C        -1.813047        -0.042445         0.975752
 C        -2.748778         0.788840         0.072141
 C        -1.478563         1.034155        -0.838453
 O        -1.615896         2.321785        -1.513942
 C        -2.593085         3.048190        -0.795419
 C        -2.650526         2.319048         0.508837
 C        -1.256715         2.284900         1.124609
 H         1.022713         1.493867         0.622412
 H        -1.720294        -1.000801         0.451429
 H        -2.074754        -0.125703         2.100808
 H        -3.805630         0.537797        -0.257610
 H        -1.384236         0.199888        -1.603107
 H        -2.184426         4.015316        -0.633315
 H        -3.500614         3.191059        -1.350276
 H        -3.415389         2.446902         1.251633
 H        -0.702810         3.121239         0.781221
 H        -1.272949         2.425127         2.235124
