19
Iteration:  2893
 O         0.626344         0.778642         0.434998
 C        -0.782963         0.972865         0.553655
 C        -1.898608        -0.062785         0.971022
 C        -2.743409         0.782405         0.086967
 C        -1.552513         1.084231        -0.901238
 O        -1.641074         2.337688        -1.549328
 C        -2.542610         3.024191        -0.787460
 C        -2.677603         2.263113         0.570717
 C        -1.267880         2.291388         1.199999
 H         0.815239         0.226959         1.181650
 H        -1.774060        -1.044269         0.486654
 H        -2.122638        -0.308651         2.067434
 H        -3.734951         0.342346        -0.148847
 H        -1.158014         0.318243        -1.467409
 H        -2.149363         4.005417        -0.354751
 H        -3.509495         3.026586        -1.353149
 H        -3.468706         2.710006         1.153092
 H        -0.585469         3.116472         0.929407
 H        -1.304164         2.307772         2.273639
