19
Iteration:    39
 O         0.530422         0.556049         0.754891
 C        -0.729549         0.952730         0.537902
 C        -1.812628        -0.063165         0.908078
 C        -2.694757         0.822931        -0.016914
 C        -1.500574         1.111310        -0.974774
 O        -1.768449         2.402961        -1.512915
 C        -2.755808         3.096426        -0.765432
 C        -2.611398         2.293914         0.530094
 C        -1.085638         2.284519         1.047742
 H         0.677731         0.560036         1.717663
 H        -1.570125        -1.009762         0.332889
 H        -2.141920        -0.222313         1.989924
 H        -3.730991         0.486117        -0.269868
 H        -1.125258         0.435004        -1.782559
 H        -2.311172         4.122532        -0.682799
 H        -3.824121         2.982575        -1.324692
 H        -3.329453         2.575389         1.324370
 H        -0.342248         3.099226         0.739159
 H        -1.029293         2.462187         2.155631
