19
Iteration:  2889charge 0 multiplicity 1
 O         0.618631         0.777222         0.443618
 C        -0.762820         0.962572         0.542422
 C        -1.872782        -0.071326         0.971358
 C        -2.738882         0.780376         0.083583
 C        -1.559468         1.069425        -0.912253
 O        -1.660418         2.346415        -1.529767
 C        -2.550065         3.032496        -0.826850
 C        -2.668828         2.288862         0.569040
 C        -1.288824         2.304778         1.222059
 H         0.804438         0.112400         1.197498
 H        -1.765575        -1.078541         0.550902
 H        -2.216115        -0.254632         2.026580
 H        -3.705342         0.349052        -0.101975
 H        -1.081420         0.240113        -1.553804
 H        -2.150756         3.928537        -0.311555
 H        -3.507497         3.127628        -1.371347
 H        -3.524261         2.632774         1.147965
 H        -0.506735         3.120730         0.909788
 H        -1.193854         2.266499         2.354279
