19
Iteration:  2712
 O         0.607756         0.621068         0.675000
 C        -0.777996         0.897353         0.531432
 C        -1.756656        -0.080270         0.982067
 C        -2.769950         0.805594         0.086775
 C        -1.543270         1.059982        -0.903233
 O        -1.694140         2.362662        -1.659292
 C        -2.626631         3.102836        -0.783682
 C        -2.670684         2.328736         0.580630
 C        -1.232248         2.293385         1.105711
 H         1.103640         1.471063         0.807036
 H        -1.598622        -1.147921         0.730589
 H        -1.937801        -0.052552         1.987115
 H        -3.778412         0.605977        -0.386942
 H        -1.486488         0.218014        -1.665671
 H        -2.353212         4.114806        -0.542431
 H        -3.577470         2.906045        -1.324599
 H        -3.429812         2.653131         1.320396
 H        -0.598170         2.992103         0.626283
 H        -1.248293         2.422879         2.271468
