19
Iteration:  2824charge 0 multiplicity 1
 O         0.604785         0.727363         0.708115
 C        -0.780656         0.952293         0.534366
 C        -1.782959        -0.057892         0.966090
 C        -2.769997         0.793108         0.016433
 C        -1.557326         1.039974        -0.847198
 O        -1.693740         2.340742        -1.551177
 C        -2.674308         3.059308        -0.737596
 C        -2.596490         2.382264         0.524815
 C        -1.223102         2.234465         1.065762
 H         0.944551         0.445109        -0.117046
 H        -1.620590        -1.035885         0.483145
 H        -2.255441        -0.339415         1.936018
 H        -3.636001         0.495296        -0.538408
 H        -1.324082         0.371518        -1.641498
 H        -2.237791         4.084805        -0.656828
 H        -3.717260         2.891559        -1.145470
 H        -3.265446         2.718320         1.245735
 H        -0.438783         2.993501         0.764839
 H        -1.224763         2.268257         2.168830
