19
Iteration:  3102charge 0 multiplicity 1
 O         0.601055         0.586348         0.617055
 C        -0.728279         0.978860         0.468333
 C        -1.878509        -0.003084         0.863278
 C        -2.704177         0.817904         0.036721
 C        -1.508762         1.045657        -0.919693
 O        -1.696751         2.273435        -1.574118
 C        -2.670398         3.020154        -0.615613
 C        -2.636621         2.357091         0.606024
 C        -1.260624         2.345105         1.097020
 H         1.205787         1.380138         0.768267
 H        -1.517128        -1.048161         0.428745
 H        -1.994683        -0.142250         1.933680
 H        -3.701547         0.465919        -0.272473
 H        -1.357848         0.372661        -1.685148
 H        -2.263238         4.023932        -0.303574
 H        -3.614227         2.997262        -1.200592
 H        -3.379406         2.548945         1.345949
 H        -0.736769         3.418647         0.913240
 H        -1.279381         2.297995         2.221151
