19
Iteration:  3846
 O         0.613947         0.589865         0.653245
 C        -0.690431         1.004908         0.465809
 C        -1.882790         0.009237         0.892582
 C        -2.775134         0.804157         0.054718
 C        -1.527327         1.040352        -0.892118
 O        -1.678152         2.281091        -1.462088
 C        -2.661211         3.030804        -0.795747
 C        -2.667594         2.328982         0.542947
 C        -1.242285         2.296739         1.152769
 H         1.130450         1.330633         0.297376
 H        -1.961621        -0.984328         0.444733
 H        -1.925606         0.089666         1.986741
 H        -3.613189         0.417234        -0.382738
 H        -1.016554         0.489491        -1.688563
 H        -2.210643         4.033715        -0.698860
 H        -3.667651         3.183518        -1.198506
 H        -3.352583         2.819959         1.274675
 H        -0.659512         3.275099         0.867562
 H        -1.153554         2.036931         2.265726
