19
Iteration:  4184charge 0 multiplicity 1
 O         0.592405         0.544170         0.676744
 C        -0.780461         1.021177         0.501172
 C        -1.807539         0.054601         0.900121
 C        -2.744515         0.821584         0.056619
 C        -1.526344         1.065748        -0.880697
 O        -1.604212         2.283371        -1.542247
 C        -2.674464         3.120722        -0.775056
 C        -2.700453         2.313418         0.606531
 C        -1.254073         2.255064         1.068142
 H         1.188415         1.211736         0.348431
 H        -1.566001        -0.970761         0.492551
 H        -2.040840        -0.116843         1.966260
 H        -3.689460         0.306609        -0.210627
 H        -1.333393         0.268145        -1.693893
 H        -2.551938         4.194405        -0.630832
 H        -3.560721         2.873474        -1.232349
 H        -3.603739         2.496053         1.348419
 H        -0.755203         3.266795         0.823852
 H        -0.859837         2.217345         2.189980
