19
Iteration:  2408
 O         0.580943         0.608566         0.582193
 C        -0.695031         1.046819         0.535305
 C        -1.836379        -0.026417         0.994242
 C        -2.689299         0.797709         0.068245
 C        -1.535071         1.064619        -0.868290
 O        -1.681765         2.311528        -1.554677
 C        -2.671180         3.000560        -0.764428
 C        -2.672878         2.284599         0.546547
 C        -1.245506         2.332755         1.097113
 H         1.295853         1.199650         0.418844
 H        -1.733609        -1.098851         0.567531
 H        -2.068169        -0.107414         2.078645
 H        -3.657450         0.476980        -0.410598
 H        -1.477856         0.273551        -1.593783
 H        -2.308961         4.093447        -0.629103
 H        -3.684829         3.278164        -1.256465
 H        -3.355092         2.627837         1.277121
 H        -0.658519         3.249301         0.920575
 H        -1.409242         2.092476         2.155403
