19
Iteration:   848
 O         0.628835         0.521800         0.711098
 C        -0.689902         0.973851         0.517632
 C        -1.841735         0.028710         0.940960
 C        -2.786162         0.856859         0.050726
 C        -1.455805         1.072114        -0.931586
 O        -1.678543         2.404817        -1.562185
 C        -2.673556         3.003553        -0.812184
 C        -2.715362         2.243293         0.570119
 C        -1.261630         2.394813         1.155968
 H         0.698902        -0.217397         0.111356
 H        -1.538190        -1.041677         0.544154
 H        -1.906970         0.081547         2.079286
 H        -3.699966         0.556447        -0.417762
 H        -0.932908         0.447222        -1.688121
 H        -2.467758         4.049276        -0.624868
 H        -3.686121         2.967440        -1.214395
 H        -3.475863         2.486705         1.409338
 H        -0.719518         3.203238         0.536997
 H        -1.201733         2.584327         2.260569
