19
Iteration:  1991charge 0 multiplicity 1
 O         0.608414         0.694263         0.452323
 C        -0.750827         0.963640         0.432194
 C        -1.861148        -0.018387         0.951542
 C        -2.794971         0.832031         0.024122
 C        -1.518440         0.946657        -0.840671
 O        -1.557786         2.281559        -1.450120
 C        -2.581845         2.990966        -0.759858
 C        -2.701255         2.290082         0.666668
 C        -1.350743         2.393337         1.190774
 H         1.211147         1.450834         0.285415
 H        -1.882037        -1.036783         0.437587
 H        -1.984344        -0.097625         2.015722
 H        -3.741332         0.492537        -0.368433
 H        -1.162242         0.181211        -1.591435
 H        -2.137580         4.018908        -0.534544
 H        -3.513309         3.028703        -1.363635
 H        -3.543547         2.699984         1.211029
 H        -0.860650         3.292252         0.948902
 H        -1.299306         2.389776         2.221631
