19
Iteration:  1213charge 0 multiplicity 1
 O         0.640840         0.830179         0.555826
 C        -0.773685         0.955467         0.515203
 C        -1.839345        -0.049065         0.908023
 C        -2.848760         0.824272         0.015670
 C        -1.515860         1.032607        -0.823798
 O        -1.707605         2.240197        -1.593560
 C        -2.426033         3.145313        -0.763661
 C        -2.700002         2.312385         0.521060
 C        -1.329373         2.206688         1.271138
 H         1.063603        -0.072161         0.493715
 H        -1.652989        -0.994337         0.546463
 H        -2.013457        -0.048368         2.017706
 H        -3.726916         0.243938        -0.311426
 H        -1.322101         0.112495        -1.347997
 H        -1.800959         4.025607        -0.528869
 H        -3.319271         3.564508        -1.430091
 H        -3.528142         2.695250         1.040897
 H        -0.714909         3.156798         1.302931
 H        -1.538086         1.885541         2.364695
