19
Iteration:   845charge 0 multiplicity 1
 O         0.611094         0.513105         0.725189
 C        -0.707544         0.982314         0.528563
 C        -1.817811         0.016238         0.953216
 C        -2.782419         0.845556         0.034232
 C        -1.447353         1.081029        -0.925783
 O        -1.681634         2.408887        -1.575463
 C        -2.707560         3.025623        -0.809321
 C        -2.693675         2.247231         0.576853
 C        -1.238034         2.387076         1.144202
 H         0.701971        -0.178212         0.038824
 H        -1.475401        -0.991354         0.596108
 H        -1.980095         0.012355         1.988257
 H        -3.723447         0.461802        -0.375048
 H        -0.975402         0.397896        -1.640110
 H        -2.431976         4.049921        -0.578846
 H        -3.666822         3.019295        -1.258320
 H        -3.392609         2.494899         1.315447
 H        -0.769106         3.170667         0.483726
 H        -1.241148         2.611777         2.290544
