19
Iteration:  1038charge 0 multiplicity 1
 O         0.647037         0.700568         0.586065
 C        -0.719335         1.023288         0.544695
 C        -1.914381         0.014981         0.941158
 C        -2.742401         0.836923        -0.005789
 C        -1.523832         1.016273        -0.825853
 O        -1.592804         2.261904        -1.626995
 C        -2.622647         3.106008        -0.757021
 C        -2.723255         2.282903         0.509748
 C        -1.296125         2.256114         1.306323
 H         0.804652         0.236390        -0.274063
 H        -1.805592        -0.970562         0.526968
 H        -2.049747        -0.129572         2.113930
 H        -3.700439         0.341584        -0.209188
 H        -1.257129         0.276836        -1.564404
 H        -2.108071         4.027976        -0.537882
 H        -3.458240         3.345051        -1.314652
 H        -3.549638         2.582241         1.153580
 H        -0.699528         3.133876         1.104716
 H        -1.352292         2.141509         2.370053
