19
Iteration:  3392charge 0 multiplicity 1
 O         0.609145         0.634366         0.615420
 C        -0.718390         1.010107         0.391811
 C        -1.868685        -0.052137         0.912096
 C        -2.703842         0.808811         0.018358
 C        -1.542214         1.032374        -0.863201
 O        -1.706777         2.253785        -1.487128
 C        -2.637909         3.040826        -0.696644
 C        -2.690313         2.309913         0.593894
 C        -1.205982         2.361060         1.143107
 H         1.086377         1.518787         0.494786
 H        -1.693306        -1.050305         0.470968
 H        -2.126475        -0.225823         1.956711
 H        -3.669121         0.555889        -0.518577
 H        -1.408628         0.283406        -1.720668
 H        -2.243768         3.979619        -0.543526
 H        -3.568752         3.213464        -1.206940
 H        -3.515412         2.714012         1.217952
 H        -0.702111         3.306914         0.787677
 H        -1.005269         2.173384         2.292713
