19
Iteration:  3357charge 0 multiplicity 1
 O         0.583598         0.670209         0.556671
 C        -0.810556         0.936364         0.451862
 C        -1.779021        -0.131470         1.026301
 C        -2.681289         0.758524         0.111160
 C        -1.585091         1.087370        -0.941416
 O        -1.704228         2.347380        -1.604284
 C        -2.559959         3.105408        -0.768933
 C        -2.667564         2.315143         0.553727
 C        -1.285545         2.297143         1.256604
 H         1.052758         1.488550         0.178614
 H        -1.519771        -1.106518         0.761389
 H        -1.934764        -0.026053         2.119928
 H        -3.491216         0.306362        -0.455144
 H        -1.420162         0.182944        -1.654996
 H        -2.073859         4.024751        -0.566286
 H        -3.537017         3.193226        -1.251859
 H        -3.612817         2.778668         1.043604
 H        -0.700322         3.199360         1.148061
 H        -1.224102         2.071136         2.437311
