19
Iteration:  2563charge 0 multiplicity 1
 O         0.606473         0.623510         0.675653
 C        -0.724661         1.057158         0.483544
 C        -1.826549        -0.093890         0.966078
 C        -2.758884         0.802697         0.060022
 C        -1.554212         1.078024        -0.889192
 O        -1.707586         2.254453        -1.637126
 C        -2.655170         3.099659        -0.765221
 C        -2.681549         2.255917         0.545569
 C        -1.195994         2.331350         1.202417
 H         1.368853         1.178700         0.326025
 H        -1.509051        -1.008458         0.434160
 H        -2.150654        -0.177178         2.071764
 H        -3.744866         0.554600        -0.328176
 H        -1.243731         0.296706        -1.535449
 H        -2.255974         4.181551        -0.732926
 H        -3.634685         3.211668        -1.180229
 H        -3.449049         2.575457         1.225910
 H        -0.517907         3.222862         0.883516
 H        -1.300416         2.357281         2.254536
