19
Iteration:  2474
 O         0.642804         0.677546         0.533110
 C        -0.750930         1.023723         0.560179
 C        -1.796219        -0.027374         0.978305
 C        -2.804776         0.805515         0.039490
 C        -1.645694         1.030005        -0.891294
 O        -1.621813         2.291057        -1.620565
 C        -2.561521         2.994168        -0.781107
 C        -2.730173         2.329182         0.604032
 C        -1.259074         2.268541         1.262170
 H         1.123191         1.527195         0.307226
 H        -1.566486        -1.113014         0.595534
 H        -2.125939         0.044814         2.055718
 H        -3.654737         0.214323        -0.424703
 H        -1.337003         0.213414        -1.507681
 H        -2.118470         4.056873        -0.786820
 H        -3.490838         3.184605        -1.348528
 H        -3.475709         2.693063         1.265709
 H        -0.657923         3.140266         0.883235
 H        -1.268056         2.269763         2.370617
