19
Iteration:  4589charge 0 multiplicity 1
 O         0.582227         0.672751         0.613235
 C        -0.764738         0.931940         0.436985
 C        -1.871913        -0.048462         1.002328
 C        -2.756584         0.874960         0.012065
 C        -1.568514         1.018007        -0.845358
 O        -1.571368         2.337876        -1.536689
 C        -2.558810         3.042912        -0.734430
 C        -2.713486         2.284224         0.551518
 C        -1.274960         2.272633         1.143220
 H         1.117026         1.085126        -0.050812
 H        -1.784509        -1.101894         0.671456
 H        -1.919577         0.092647         2.069622
 H        -3.727845         0.645406        -0.400855
 H        -1.287397         0.208313        -1.454144
 H        -2.414140         4.137480        -0.575273
 H        -3.451215         3.050744        -1.263602
 H        -3.530062         2.593109         1.268715
 H        -0.599985         3.174507         0.813753
 H        -1.282719         2.245374         2.176335
