19
Iteration:  2304charge 0 multiplicity 1
 O         0.552328         0.704037         0.656599
 C        -0.731218         1.050949         0.475609
 C        -1.778717         0.011310         0.937980
 C        -2.645202         0.835726         0.117592
 C        -1.535084         1.047512        -0.938079
 O        -1.782901         2.151046        -1.619620
 C        -2.546918         3.147094        -0.786924
 C        -2.690362         2.330339         0.583112
 C        -1.284676         2.169215         1.218854
 H         1.029854         1.311868         0.074424
 H        -1.571019        -0.960271         0.396964
 H        -2.182201        -0.137704         2.000397
 H        -3.606228         0.455830        -0.196476
 H        -1.258354         0.291618        -1.738988
 H        -1.939451         4.013795        -0.655392
 H        -3.489947         3.298837        -1.271458
 H        -3.522798         2.655502         1.339944
 H        -0.707453         3.112259         1.146925
 H        -1.337493         1.985000         2.288638
