19
Iteration:  3152
 O         0.653113         0.594002         0.604224
 C        -0.726524         1.009683         0.414665
 C        -1.822922         0.008846         0.928646
 C        -2.783014         0.859989         0.027246
 C        -1.530490         0.985735        -0.906942
 O        -1.616853         2.317007        -1.498146
 C        -2.688924         3.087439        -0.714258
 C        -2.772209         2.281203         0.608068
 C        -1.220082         2.313605         1.188390
 H         1.219037         1.167607         0.040602
 H        -1.772468        -0.890406         0.391127
 H        -2.089354        -0.005608         2.031433
 H        -3.675834         0.355057        -0.379576
 H        -1.102268         0.186383        -1.634282
 H        -2.401332         4.168141        -0.888616
 H        -3.739240         2.923495        -1.135552
 H        -3.466111         2.543716         1.437901
 H        -0.806388         3.258004         0.976605
 H        -1.030700         1.976555         2.191222
