19
Iteration:  3835
 O         0.589112         0.612926         0.628397
 C        -0.783426         1.006498         0.483315
 C        -1.805081        -0.009464         0.942300
 C        -2.773152         0.806704         0.009676
 C        -1.507517         1.021349        -0.888070
 O        -1.648562         2.282723        -1.529642
 C        -2.627820         3.133302        -0.706581
 C        -2.638821         2.293503         0.530182
 C        -1.281340         2.273919         1.120172
 H         1.204504         1.312917         0.259146
 H        -1.526028        -1.029154         0.656344
 H        -2.080669        -0.101022         2.007432
 H        -3.740855         0.508887        -0.133756
 H        -1.416243         0.117934        -1.487889
 H        -2.170425         4.135869        -0.665010
 H        -3.578893         3.110906        -1.255319
 H        -3.420008         2.624933         1.263198
 H        -0.657931         3.227760         0.930898
 H        -1.472290         2.264273         2.225319
