19
Iteration:  1518charge 0 multiplicity 1
 O         0.630591         0.692497         0.582171
 C        -0.761894         0.916007         0.506932
 C        -1.821344        -0.036711         0.972333
 C        -2.753362         0.780351         0.019175
 C        -1.602212         1.078742        -0.865929
 O        -1.701892         2.261303        -1.647666
 C        -2.466666         3.138569        -0.765109
 C        -2.708149         2.313156         0.562138
 C        -1.286180         2.255957         1.223762
 H         1.126717         1.126441         1.294968
 H        -1.758988        -1.065518         0.690460
 H        -1.991946        -0.056783         2.130792
 H        -3.710100         0.280141        -0.427792
 H        -1.236690         0.284094        -1.541623
 H        -2.105198         4.214416        -0.805436
 H        -3.517245         3.441752        -1.307012
 H        -3.581682         2.611203         1.162706
 H        -0.752240         3.219805         1.017159
 H        -1.350092         2.144867         2.259268
