19
Iteration:  3887
 O         0.550698         0.556781         0.656486
 C        -0.767298         0.999904         0.463516
 C        -1.818710        -0.032004         0.965153
 C        -2.753898         0.783341         0.052167
 C        -1.512000         1.050606        -0.928084
 O        -1.685376         2.352973        -1.486624
 C        -2.639201         3.050443        -0.764600
 C        -2.705164         2.327312         0.541100
 C        -1.158205         2.354433         1.112283
 H         1.230709         1.244660         0.380711
 H        -1.642580        -0.997480         0.531279
 H        -2.083332        -0.225642         2.017535
 H        -3.709240         0.351358        -0.261367
 H        -0.996638         0.371612        -1.613895
 H        -2.357741         4.067642        -0.606295
 H        -3.516615         2.945532        -1.371703
 H        -3.529974         2.583486         1.172314
 H        -0.564475         3.170905         0.743572
 H        -1.241737         2.339312         2.268854
