19
Iteration:   535
 O         0.546414         0.456165         0.806687
 C        -0.712932         1.034971         0.467341
 C        -1.707071        -0.033610         0.965475
 C        -2.722968         0.746645         0.019137
 C        -1.532063         1.097159        -0.927597
 O        -1.707248         2.365555        -1.584612
 C        -2.742741         3.088404        -0.752500
 C        -2.700101         2.367080         0.517893
 C        -1.174132         2.336857         1.072953
 H         1.271827         1.011561         0.412197
 H        -1.592680        -1.046151         0.713714
 H        -2.007192        -0.115031         2.037454
 H        -3.791446         0.402222        -0.287813
 H        -1.079531         0.333810        -1.646933
 H        -2.492037         4.199577        -0.799579
 H        -3.786315         2.977932        -1.262346
 H        -3.384558         2.707889         1.241677
 H        -0.673392         3.271885         0.742146
 H        -1.205499         2.272132         2.221081
