19
Iteration:  2937charge 0 multiplicity 1
 O         0.614715         0.667542         0.521602
 C        -0.698473         0.970377         0.502362
 C        -1.862746        -0.060170         0.984257
 C        -2.861549         0.769231         0.148429
 C        -1.523724         1.091625        -0.913278
 O        -1.626580         2.391587        -1.544564
 C        -2.594993         3.083083        -0.749782
 C        -2.653748         2.240701         0.503723
 C        -1.273375         2.246467         1.141941
 H         1.156314         1.364276         0.873694
 H        -1.706487        -1.097908         0.600009
 H        -2.061769        -0.232177         2.089783
 H        -3.820249         0.410488        -0.286473
 H        -1.357444         0.428228        -1.680196
 H        -2.250821         4.138481        -0.567204
 H        -3.652384         2.904044        -1.101068
 H        -3.438639         2.587885         1.164738
 H        -0.673333         3.141807         0.921729
 H        -1.196272         2.131669         2.208142
