19
Iteration:     6
 O         0.628994         0.650022         0.553540
 C        -0.752027         0.973862         0.483674
 C        -1.855118        -0.040685         0.917519
 C        -2.758098         0.831583        -0.012029
 C        -1.535174         1.069755        -0.866086
 O        -1.599332         2.349278        -1.514881
 C        -2.567232         3.069249        -0.736155
 C        -2.703920         2.293665         0.564736
 C        -1.246760         2.238429         1.170747
 H         0.764126         0.795690         1.530513
 H        -1.891503        -1.096548         0.554787
 H        -2.224521        -0.077492         1.983921
 H        -3.789817         0.493692        -0.267877
 H        -1.421995         0.179021        -1.543698
 H        -2.312693         4.166544        -0.749963
 H        -3.572765         3.118378        -1.296174
 H        -3.571066         2.670368         1.148684
 H        -0.805153         3.177045         0.760142
 H        -1.433997         2.173175         2.259647
