19
Iteration:   567charge 0 multiplicity 1
 O         0.609489         0.656119         0.587141
 C        -0.709855         1.020275         0.552229
 C        -1.836128        -0.032624         0.955231
 C        -2.796978         0.853405         0.006603
 C        -1.504006         1.063545        -0.888816
 O        -1.684166         2.187442        -1.610173
 C        -2.560446         3.068409        -0.678706
 C        -2.685716         2.326961         0.531079
 C        -1.292107         2.288244         1.172830
 H         1.104722         1.410577         0.226695
 H        -1.902043        -1.073147         0.644486
 H        -2.160770         0.055332         2.017987
 H        -3.868683         0.498018        -0.315856
 H        -1.069877         0.140734        -1.408165
 H        -1.971039         4.035075        -0.497189
 H        -3.519898         3.189083        -1.264165
 H        -3.530905         2.571375         1.196292
 H        -0.696622         3.226144         0.915875
 H        -1.382397         2.203313         2.317480
