19
Iteration:  1979
 O         0.615775         0.661729         0.464332
 C        -0.773709         1.001538         0.542957
 C        -1.849821        -0.053804         0.955534
 C        -2.741204         0.828001         0.093041
 C        -1.566406         1.058818        -0.851987
 O        -1.514793         2.282217        -1.456437
 C        -2.637723         3.053368        -0.765700
 C        -2.764897         2.269190         0.524234
 C        -1.257459         2.313944         1.188020
 H         0.958615         1.499550         0.031413
 H        -1.525845        -1.042099         0.633330
 H        -2.154261        -0.085923         2.022491
 H        -3.683793         0.493314        -0.354397
 H        -1.552085         0.197944        -1.554990
 H        -2.362361         4.163251        -0.714766
 H        -3.519103         2.989747        -1.362634
 H        -3.552477         2.473309         1.189945
 H        -0.733272         3.115773         0.770063
 H        -1.206704         2.254267         2.257291
