19
Iteration:  1399charge 0 multiplicity 1
 O         0.582596         0.783537         0.600474
 C        -0.735679         0.943720         0.553069
 C        -1.833624        -0.142218         0.992017
 C        -2.732301         0.827379         0.010760
 C        -1.552546         1.032585        -0.870164
 O        -1.683772         2.272249        -1.589728
 C        -2.469994         3.123904        -0.795116
 C        -2.685285         2.402219         0.557831
 C        -1.343406         2.220761         1.201948
 H         0.971167         0.307766        -0.167780
 H        -1.696998        -1.146364         0.554501
 H        -2.215607        -0.069475         2.178962
 H        -3.793397         0.563504        -0.314591
 H        -1.264134         0.230149        -1.585171
 H        -1.936345         4.049426        -0.592910
 H        -3.403392         3.357037        -1.242663
 H        -3.652222         2.542093         0.997208
 H        -0.635242         3.093817         1.099596
 H        -1.336817         2.103087         2.371375
