19
Iteration:  3472
 O         0.581265         0.655110         0.563829
 C        -0.765073         1.048912         0.481890
 C        -1.908373        -0.127037         1.043174
 C        -2.715386         0.752668         0.112229
 C        -1.536682         1.030783        -0.831368
 O        -1.709846         2.403430        -1.561402
 C        -2.537693         3.087882        -0.809090
 C        -2.729581         2.226702         0.503576
 C        -1.201776         2.294275         1.164116
 H         1.052929         1.233409        -0.129667
 H        -1.568065        -1.185932         0.566646
 H        -1.983565        -0.061726         2.173883
 H        -3.662366         0.517039        -0.466645
 H        -1.106489         0.399530        -1.510741
 H        -2.148144         4.106067        -0.543331
 H        -3.480371         3.159007        -1.227912
 H        -3.486769         2.493894         1.182271
 H        -0.491476         3.319781         1.001572
 H        -1.156401         2.128324         2.215492
