19
Iteration:  2727charge 0 multiplicity 1
 O         0.551312         0.687581         0.646400
 C        -0.740065         1.014956         0.403001
 C        -1.851811        -0.029606         0.965566
 C        -2.730503         0.827480         0.103740
 C        -1.586551         1.003212        -0.908221
 O        -1.627039         2.276791        -1.552591
 C        -2.647348         3.082134        -0.789611
 C        -2.695197         2.290065         0.585838
 C        -1.181672         2.249215         1.143353
 H         1.067363         1.466055         0.735552
 H        -1.675046        -0.990893         0.401217
 H        -2.011315        -0.197997         2.138998
 H        -3.617737         0.328406        -0.161588
 H        -1.290724         0.209419        -1.533799
 H        -2.130515         4.140564        -0.832936
 H        -3.625959         3.298912        -1.335699
 H        -3.489251         2.655527         1.201825
 H        -0.647863         3.224095         0.952346
 H        -0.988883         2.001164         2.161974
