19
Iteration:  1713
 O         0.705918         0.707295         0.350777
 C        -0.753961         1.025889         0.502552
 C        -1.978980        -0.014482         0.985617
 C        -2.825706         0.812399         0.058284
 C        -1.492393         1.039271        -0.750251
 O        -1.540783         2.274077        -1.493422
 C        -2.561439         3.018413        -0.783811
 C        -2.824282         2.287319         0.540838
 C        -1.213700         2.263148         1.202111
 H         1.053177         1.063694         1.202217
 H        -1.956377        -1.066041         0.563834
 H        -2.158527        -0.133898         2.062623
 H        -3.885066         0.568782        -0.426502
 H        -1.129822         0.352037        -1.518123
 H        -2.224021         4.107174        -0.595321
 H        -3.495694         3.064748        -1.349201
 H        -3.596800         2.554169         1.349316
 H        -0.833247         3.239519         0.941306
 H        -1.417305         2.180764         2.252071
