19
Iteration:  2461charge 0 multiplicity 1
 O         0.658679         0.726934         0.587394
 C        -0.743602         0.939235         0.533042
 C        -1.821690        -0.013700         0.957190
 C        -2.771337         0.814061         0.087026
 C        -1.527234         1.011835        -0.961835
 O        -1.706905         2.202059        -1.588213
 C        -2.569158         3.130989        -0.744067
 C        -2.695109         2.328783         0.519619
 C        -1.292269         2.274297         1.240845
 H         1.049533         1.477627         0.166902
 H        -1.720938        -1.154205         0.519574
 H        -1.935473        -0.188262         2.051994
 H        -3.876908         0.601022         0.056996
 H        -1.331107         0.223199        -1.743005
 H        -2.110240         4.110634        -0.562346
 H        -3.507136         3.115589        -1.189347
 H        -3.627129         2.682286         0.957824
 H        -0.687581         3.139071         1.040295
 H        -1.251398         2.117389         2.403941
