19
Iteration:  1937charge 0 multiplicity 1
 O         0.627872         0.595575         0.721454
 C        -0.673907         1.015133         0.467306
 C        -1.805576         0.056309         0.932246
 C        -2.734064         0.862821        -0.036014
 C        -1.612060         1.074107        -0.886699
 O        -1.660398         2.307019        -1.564821
 C        -2.657109         3.020284        -0.726311
 C        -2.730252         2.252563         0.619363
 C        -1.212566         2.292563         1.129102
 H         1.223031         0.762386        -0.070441
 H        -1.684117        -0.888442         0.318375
 H        -2.178340        -0.104341         1.924688
 H        -3.669669         0.420913        -0.286809
 H        -1.291228         0.240576        -1.561117
 H        -2.454301         4.130574        -0.566427
 H        -3.767049         2.996745        -1.237715
 H        -3.591454         2.501236         1.262065
 H        -0.683404         3.222600         0.861106
 H        -1.089884         2.209189         2.142623
