19
Iteration:  2341
 O         0.607558         0.686363         0.597497
 C        -0.724953         0.992801         0.545027
 C        -1.839167        -0.037920         1.002694
 C        -2.717271         0.827225         0.073166
 C        -1.568862         1.021604        -0.986463
 O        -1.694535         2.270323        -1.554510
 C        -2.606759         3.082329        -0.753174
 C        -2.667408         2.267903         0.574025
 C        -1.262740         2.305501         1.132793
 H         1.315921         1.361133         0.674494
 H        -1.757142        -1.002357         0.410772
 H        -2.239296        -0.323607         1.955306
 H        -3.670171         0.315871        -0.035326
 H        -1.382186         0.210806        -1.683661
 H        -2.289906         4.145947        -0.626023
 H        -3.522195         3.234599        -1.478433
 H        -3.314858         2.560073         1.315942
 H        -0.680150         3.096517         0.728275
 H        -1.239378         2.396300         2.267481
