19
Iteration:  2573charge 0 multiplicity 1
 O         0.622221         0.621930         0.641309
 C        -0.710252         1.008880         0.496029
 C        -1.854668         0.011209         0.938570
 C        -2.734485         0.806457         0.116631
 C        -1.509262         1.038434        -0.898395
 O        -1.726834         2.265831        -1.602823
 C        -2.648708         3.064566        -0.776210
 C        -2.672178         2.283955         0.522754
 C        -1.260616         2.333744         1.164243
 H         1.082690         1.461053         0.301803
 H        -1.911090        -1.050351         0.419544
 H        -1.950385        -0.337841         2.059040
 H        -3.734416         0.407774        -0.141821
 H        -1.073276         0.299746        -1.504308
 H        -2.119041         3.963414        -0.266052
 H        -3.397615         3.303448        -1.437149
 H        -3.430317         2.613822         1.184335
 H        -0.626701         3.297475         1.047217
 H        -1.303394         2.084568         2.228991
