19
Iteration:    64
 O         0.632380         0.505700         0.593856
 C        -0.724962         1.024471         0.565137
 C        -1.898759        -0.030873         0.921631
 C        -2.765153         0.840632        -0.045779
 C        -1.448378         1.109442        -0.912718
 O        -1.674308         2.310039        -1.594170
 C        -2.665467         3.031425        -0.718524
 C        -2.722552         2.280479         0.659123
 C        -1.231570         2.392341         1.134404
 H         0.964574         0.555283         1.492721
 H        -1.584120        -0.972638         0.311544
 H        -2.118183        -0.234664         1.931232
 H        -3.695734         0.628877        -0.519604
 H        -1.094926         0.359637        -1.563964
 H        -2.184824         3.982382        -0.568488
 H        -3.586489         3.061825        -1.348445
 H        -3.490176         2.633417         1.328421
 H        -0.752858         3.386663         0.756079
 H        -1.121361         2.585899         2.215514
