19
Iteration:  1758charge 0 multiplicity 1
 O         0.613289         0.633815         0.641854
 C        -0.773939         1.041774         0.440323
 C        -1.810859         0.028157         0.900650
 C        -2.804334         0.782054         0.077311
 C        -1.512144         1.092760        -0.907813
 O        -1.699668         2.299375        -1.586356
 C        -2.598525         3.029775        -0.749426
 C        -2.670041         2.273650         0.605166
 C        -1.200678         2.301430         1.145656
 H         0.933125         0.495789         1.569907
 H        -1.535080        -0.884814         0.427629
 H        -2.159249        -0.245768         1.940425
 H        -3.819478         0.441520        -0.378062
 H        -1.388956         0.252078        -1.606350
 H        -2.283705         4.116744        -0.517983
 H        -3.639892         3.030308        -1.221614
 H        -3.470235         2.671437         1.233235
 H        -0.750176         3.137873         0.646510
 H        -0.873463         2.278745         2.144559
