19
Iteration:  1349
 O         0.620275         0.775248         0.624736
 C        -0.751085         0.937035         0.480934
 C        -1.889409        -0.090629         0.968738
 C        -2.784979         0.809662         0.005856
 C        -1.531798         1.046470        -0.897951
 O        -1.677854         2.270073        -1.587773
 C        -2.594601         3.179368        -0.789997
 C        -2.641514         2.324773         0.564629
 C        -1.238490         2.238968         1.238914
 H         0.943944        -0.057265         0.930984
 H        -1.746416        -1.077465         0.496314
 H        -2.030172        -0.077859         1.950565
 H        -3.572838         0.383836        -0.582725
 H        -1.298194         0.171295        -1.593830
 H        -2.099731         4.112872        -0.430355
 H        -3.577148         3.291321        -1.383162
 H        -3.476821         2.712814         1.236659
 H        -0.585698         3.005044         0.905048
 H        -1.270069         2.288131         2.296893
