19
Iteration:  1281
 O         0.627465         0.702136         0.697498
 C        -0.751047         0.845763         0.522813
 C        -1.902535        -0.077005         0.973947
 C        -2.742702         0.806361         0.057707
 C        -1.514549         1.088770        -0.875800
 O        -1.594495         2.391763        -1.538481
 C        -2.704428         3.043197        -0.798145
 C        -2.646662         2.310498         0.491311
 C        -1.238023         2.309544         1.154897
 H         0.908489         0.090123        -0.018613
 H        -1.817686        -1.021397         0.476455
 H        -2.072887        -0.040599         1.992257
 H        -3.776742         0.619739        -0.356813
 H        -1.382206         0.429559        -1.814985
 H        -2.244054         4.045238        -0.747857
 H        -3.764959         3.010321        -1.321106
 H        -3.352874         2.718252         1.200918
 H        -0.684785         3.135977         0.743068
 H        -1.151644         2.406685         2.264616
