19
Iteration:  1496charge 0 multiplicity 1
 O         0.574322         0.618809         0.641992
 C        -0.792488         1.009544         0.513323
 C        -1.858473        -0.002153         0.927363
 C        -2.716942         0.826406         0.029759
 C        -1.497013         1.037409        -0.952412
 O        -1.710194         2.280337        -1.623990
 C        -2.600560         3.036583        -0.704624
 C        -2.653564         2.283947         0.521930
 C        -1.197511         2.304602         1.194788
 H         0.987122         1.331432         1.187319
 H        -1.607941        -1.000865         0.651984
 H        -2.365042        -0.112158         1.971237
 H        -3.830437         0.668896        -0.259803
 H        -1.068472         0.213138        -1.530068
 H        -2.271259         4.098947        -0.590324
 H        -3.554625         3.326812        -1.330515
 H        -3.333572         2.602790         1.314881
 H        -0.608684         3.227208         0.980127
 H        -1.191700         2.112773         2.221025
