19
Iteration:  3294charge 0 multiplicity 1
 O         0.535238         0.624145         0.595852
 C        -0.825786         1.009287         0.465010
 C        -1.764395         0.009781         1.002615
 C        -2.753077         0.812815         0.036513
 C        -1.505849         1.056381        -0.890874
 O        -1.661285         2.360262        -1.456692
 C        -2.678004         3.056747        -0.710443
 C        -2.633331         2.271990         0.515581
 C        -1.193321         2.218287         1.087907
 H         1.061834         1.373688         0.202281
 H        -1.439852        -0.897109         0.531086
 H        -1.951839         0.013104         2.078415
 H        -3.624470         0.288577        -0.451301
 H        -1.231710         0.288144        -1.691515
 H        -2.454026         4.094710        -0.663728
 H        -3.701339         3.012994        -1.170339
 H        -3.402330         2.491429         1.257410
 H        -0.604280         3.051926         0.677150
 H        -1.209138         2.125605         2.207051
