19
Iteration:  1754
 O         0.587934         0.643877         0.625049
 C        -0.788103         1.066389         0.397830
 C        -1.848577        -0.021499         0.953629
 C        -2.788076         0.797977         0.104300
 C        -1.520131         1.107752        -0.914776
 O        -1.669278         2.301070        -1.587022
 C        -2.599836         3.042540        -0.723014
 C        -2.661910         2.260831         0.577789
 C        -1.196153         2.288732         1.116334
 H         0.808482         0.598612         1.551910
 H        -1.442823        -0.994621         0.431944
 H        -2.034733        -0.295760         1.979345
 H        -3.748191         0.445762        -0.287948
 H        -1.195661         0.262010        -1.543167
 H        -2.318337         4.103937        -0.587840
 H        -3.697123         2.989288        -1.261406
 H        -3.549166         2.696290         1.184373
 H        -0.618446         3.175626         0.839234
 H        -0.886556         2.208084         2.206475
