19
Iteration:  4627charge 0 multiplicity 1
 O         0.592471         0.498147         0.618608
 C        -0.742164         1.002774         0.525967
 C        -1.850097        -0.073010         0.941519
 C        -2.790235         0.904635         0.055999
 C        -1.507564         1.041377        -0.859369
 O        -1.616848         2.354574        -1.541469
 C        -2.648001         3.061677        -0.743124
 C        -2.657140         2.287853         0.531269
 C        -1.243689         2.360738         1.127164
 H         1.193522         1.255614         0.407509
 H        -1.599384        -1.100272         0.577403
 H        -1.945787         0.028470         2.071790
 H        -3.737654         0.552561        -0.570280
 H        -1.327939         0.207323        -1.662574
 H        -2.465580         4.135818        -0.644146
 H        -3.635813         2.829564        -1.280663
 H        -3.526753         2.565760         1.100691
 H        -0.848707         3.309275         0.747481
 H        -1.262491         2.352855         2.342535
