19
Iteration:  4939charge 0 multiplicity 1
 O         0.571073         0.525807         0.705323
 C        -0.772552         1.052983         0.502556
 C        -1.826797        -0.029452         0.925720
 C        -2.780781         0.808959         0.024596
 C        -1.534438         1.062593        -0.877426
 O        -1.685083         2.300968        -1.601386
 C        -2.620379         3.146957        -0.709693
 C        -2.640716         2.272430         0.549831
 C        -1.219196         2.282760         1.079854
 H         1.239461         1.238221         0.530228
 H        -1.603711        -1.001729         0.540727
 H        -1.812246        -0.167516         1.985389
 H        -3.804173         0.495827        -0.139061
 H        -1.218413         0.363801        -1.642823
 H        -2.227222         4.186941        -0.669046
 H        -3.572848         3.221823        -1.279153
 H        -3.442463         2.612280         1.262324
 H        -0.711418         3.221153         0.922231
 H        -1.105463         2.244691         2.154355
