19
Iteration:  1357
 O         0.676809         0.828533         0.634830
 C        -0.825142         0.948579         0.485984
 C        -1.877974        -0.122943         0.916183
 C        -2.728484         0.888453         0.006236
 C        -1.599104         1.030701        -0.946625
 O        -1.682382         2.234242        -1.583460
 C        -2.502709         3.105255        -0.736290
 C        -2.688181         2.298960         0.585416
 C        -1.255300         2.275612         1.218712
 H         0.663470        -0.082572         0.895221
 H        -1.755721        -1.145919         0.520423
 H        -2.100771        -0.107054         2.019996
 H        -3.718335         0.495193        -0.368774
 H        -1.327872         0.210077        -1.703412
 H        -2.030594         4.095190        -0.657934
 H        -3.440698         3.294023        -1.279689
 H        -3.423351         2.758699         1.221945
 H        -0.492704         3.065479         1.018987
 H        -1.375634         2.143135         2.425536
