19
Iteration:  3901charge 0 multiplicity 1
 O         0.616874         0.559508         0.646263
 C        -0.724098         1.019970         0.498258
 C        -1.843991         0.011341         0.917001
 C        -2.750072         0.837102         0.012100
 C        -1.539145         1.070343        -0.838063
 O        -1.626840         2.280588        -1.537458
 C        -2.654829         3.096127        -0.759569
 C        -2.745761         2.233382         0.581211
 C        -1.264043         2.300625         1.111180
 H         1.216020         1.226444         0.345925
 H        -1.487962        -1.009419         0.631436
 H        -1.983479         0.094140         2.004710
 H        -3.625832         0.575704        -0.504286
 H        -1.637557         0.234118        -1.566221
 H        -2.148085         4.055885        -0.687076
 H        -3.607259         3.220365        -1.182265
 H        -3.537973         2.597057         1.306475
 H        -0.791104         3.346699         0.724036
 H        -0.792501         2.200756         2.197223
