19
Iteration:  3501
 O         0.634715         0.707205         0.571632
 C        -0.738905         1.042720         0.479685
 C        -1.842251         0.047597         0.882234
 C        -2.780204         0.886556         0.090740
 C        -1.638144         0.965973        -0.940605
 O        -1.612770         2.221447        -1.528289
 C        -2.530036         3.034864        -0.707183
 C        -2.763281         2.277571         0.560391
 C        -1.231644         2.240270         1.235546
 H         1.057227         1.516039         0.193345
 H        -1.729900        -0.778683         0.224507
 H        -1.978896        -0.062668         1.905838
 H        -3.777335         0.420284        -0.166324
 H        -1.349157         0.094968        -1.613169
 H        -2.089677         3.998081        -0.608456
 H        -3.578542         3.081132        -1.247872
 H        -3.529080         2.616955         1.255932
 H        -0.647950         3.050003         1.064472
 H        -1.248848         2.073889         2.363120
