19
Iteration:  1235charge 0 multiplicity 1
 O         0.568737         0.848850         0.581492
 C        -0.775884         1.013698         0.505834
 C        -1.811952        -0.107114         0.944433
 C        -2.752583         0.787558         0.073349
 C        -1.595683         0.961195        -0.911834
 O        -1.689683         2.283002        -1.689304
 C        -2.337975         3.139856        -0.703897
 C        -2.712339         2.320750         0.536919
 C        -1.349990         2.234137         1.295649
 H         0.769925        -0.056737         0.387235
 H        -1.748046        -1.048676         0.532541
 H        -2.062400        -0.093504         2.022704
 H        -3.770730         0.466419        -0.239069
 H        -1.240125         0.130630        -1.504813
 H        -1.842365         4.073188        -0.472374
 H        -3.223484         3.324022        -1.373254
 H        -3.556503         2.501989         1.126017
 H        -0.698632         3.154303         1.186111
 H        -1.472557         2.066336         2.441624
