19
Iteration:  2580
 O         0.636077         0.645508         0.598744
 C        -0.757658         0.948739         0.527426
 C        -1.807017         0.028992         0.939897
 C        -2.745319         0.846787         0.104019
 C        -1.483062         1.000055        -0.876324
 O        -1.733145         2.283068        -1.559210
 C        -2.556380         3.045014        -0.765889
 C        -2.708653         2.327006         0.536752
 C        -1.313631         2.280238         1.138020
 H         1.025400         1.539193         0.348807
 H        -1.763829        -0.987769         0.430902
 H        -1.901219         0.019841         2.008604
 H        -3.690271         0.287511        -0.174275
 H        -1.245402         0.223953        -1.697110
 H        -2.025672         3.981782        -0.601585
 H        -3.505004         3.290748        -1.414894
 H        -3.535798         2.655288         1.213166
 H        -0.893692         3.219100         1.003898
 H        -1.267659         2.004610         2.277466
