19
Iteration:  2466charge 0 multiplicity 1
 O         0.662102         0.701845         0.559155
 C        -0.740840         0.975907         0.580781
 C        -1.800540        -0.037108         0.956678
 C        -2.807435         0.808958         0.060157
 C        -1.569862         1.059725        -0.990693
 O        -1.662333         2.208524        -1.592440
 C        -2.561004         3.073888        -0.751221
 C        -2.728371         2.366542         0.540050
 C        -1.276291         2.254863         1.273697
 H         1.077924         1.554828         0.201567
 H        -1.686406        -1.007794         0.649221
 H        -1.983188        -0.069443         2.052350
 H        -3.832283         0.380468        -0.076744
 H        -1.400961         0.205767        -1.618900
 H        -2.022779         4.054664        -0.566058
 H        -3.666613         3.025117        -1.197221
 H        -3.672359         2.667932         1.041944
 H        -0.610331         3.157005         0.973936
 H        -1.201257         2.245570         2.309706
