19
Iteration:  3693
 O         0.568903         0.613680         0.660940
 C        -0.763039         0.989557         0.493473
 C        -1.770132        -0.081293         0.975530
 C        -2.746771         0.825181         0.004753
 C        -1.593472         1.081265        -0.936265
 O        -1.669377         2.316056        -1.546060
 C        -2.627849         3.045231        -0.789641
 C        -2.654961         2.351932         0.580759
 C        -1.222063         2.285998         1.172947
 H         1.175790         1.328318         0.299510
 H        -1.740642        -1.104243         0.551554
 H        -2.092435        -0.097668         2.079320
 H        -3.653936         0.342777        -0.070373
 H        -1.137649         0.247056        -1.522840
 H        -2.361967         4.135083        -1.004978
 H        -3.700106         3.061605        -1.261430
 H        -3.459878         2.638293         1.304481
 H        -0.594938         3.167150         0.864742
 H        -1.105061         2.246785         2.178543
