19
Iteration:  1492charge 0 multiplicity 1
 O         0.569352         0.617911         0.653929
 C        -0.772553         0.953051         0.494568
 C        -1.863908        -0.001868         0.933684
 C        -2.718837         0.847939        -0.005095
 C        -1.508424         1.055975        -0.922292
 O        -1.692894         2.260137        -1.618307
 C        -2.613582         3.033589        -0.685714
 C        -2.650735         2.309907         0.562151
 C        -1.208016         2.329535         1.149660
 H         1.117540         1.273116         1.127245
 H        -1.657962        -1.023733         0.519523
 H        -2.202690        -0.019425         1.888571
 H        -3.741212         0.576245        -0.276570
 H        -1.046781         0.302817        -1.556032
 H        -2.279123         4.106335        -0.629085
 H        -3.569197         3.163691        -1.229469
 H        -3.474036         2.599532         1.287444
 H        -0.625986         3.268960         0.966572
 H        -1.328444         2.177543         2.275691
