19
Iteration:  4132
 O         0.594086         0.651258         0.591771
 C        -0.732246         1.033848         0.480861
 C        -1.919649        -0.091552         0.972228
 C        -2.764128         0.840800         0.060549
 C        -1.513360         0.981293        -0.884527
 O        -1.629190         2.285674        -1.540619
 C        -2.623115         3.026357        -0.766546
 C        -2.643580         2.352476         0.548450
 C        -1.236749         2.341024         1.163320
 H         1.246087         1.243447         0.223073
 H        -1.728820        -1.097688         0.527456
 H        -1.864675        -0.157746         2.068084
 H        -3.724116         0.558534        -0.459463
 H        -1.373070         0.231113        -1.666950
 H        -2.259447         4.049525        -0.436374
 H        -3.692969         3.253018        -1.248132
 H        -3.512382         2.622284         1.247465
 H        -0.683741         3.231081         1.005735
 H        -1.465432         2.079705         2.301980
