19
Iteration:  3296
 O         0.546242         0.634416         0.590066
 C        -0.821895         0.998905         0.468573
 C        -1.788058        -0.005482         1.009744
 C        -2.740586         0.815911         0.050983
 C        -1.499758         1.045618        -0.905722
 O        -1.655790         2.352072        -1.450789
 C        -2.701635         3.070329        -0.711957
 C        -2.617003         2.278658         0.511553
 C        -1.208554         2.213991         1.091455
 H         1.097568         1.378560         0.181331
 H        -1.445001        -0.982855         0.484889
 H        -1.982847        -0.036264         2.093401
 H        -3.659681         0.325191        -0.389241
 H        -1.140964         0.310450        -1.617131
 H        -2.462723         4.215250        -0.675995
 H        -3.731627         3.101088        -1.211497
 H        -3.363968         2.488141         1.223792
 H        -0.644099         3.090957         0.673014
 H        -1.202968         2.126349         2.112943
