19
Iteration:  4059charge 0 multiplicity 1
 O         0.578697         0.588413         0.645418
 C        -0.760766         0.982488         0.437018
 C        -1.820628        -0.031678         0.982112
 C        -2.774284         0.821779         0.044458
 C        -1.542147         1.047695        -0.884089
 O        -1.630096         2.298240        -1.603256
 C        -2.652904         3.084138        -0.721584
 C        -2.699616         2.262391         0.539685
 C        -1.179289         2.337480         1.183280
 H         1.149481         1.311206         0.402598
 H        -1.477434        -0.999659         0.634506
 H        -2.203609         0.027646         2.027009
 H        -3.803926         0.630879        -0.341332
 H        -1.268560         0.223055        -1.515660
 H        -2.303793         4.114880        -0.573522
 H        -3.557514         3.136198        -1.213478
 H        -3.448677         2.643749         1.208610
 H        -0.694224         3.355264         0.793828
 H        -1.229691         2.129279         2.205054
