19
Iteration:  2204charge 0 multiplicity 1
 O         0.657641         0.533486         0.647882
 C        -0.745004         1.041254         0.507228
 C        -1.795986        -0.098764         0.971041
 C        -2.741560         0.785792         0.008256
 C        -1.541577         1.086919        -0.891750
 O        -1.749123         2.256688        -1.567029
 C        -2.668579         3.077803        -0.758963
 C        -2.605621         2.390296         0.549375
 C        -1.301800         2.355373         1.139974
 H         1.221608         1.304952         0.514321
 H        -1.330570        -0.997549         0.642533
 H        -2.081581        -0.172389         2.109167
 H        -3.770302         0.475773        -0.313066
 H        -1.160766         0.357335        -1.608395
 H        -2.298902         4.091124        -0.789869
 H        -3.737507         3.145912        -1.077521
 H        -3.497747         2.721688         1.208210
 H        -0.658783         3.202714         0.821110
 H        -1.238762         2.373106         2.170878
