19
Iteration:  4994
 O         0.554185         0.622629         0.554566
 C        -0.772647         0.984954         0.525174
 C        -1.893221        -0.024375         0.956548
 C        -2.739935         0.851198         0.036146
 C        -1.531911         1.040678        -0.889358
 O        -1.594469         2.339501        -1.529730
 C        -2.597748         3.024295        -0.822870
 C        -2.712467         2.314436         0.588114
 C        -1.209942         2.245521         1.227433
 H         1.148917         1.356177         0.408839
 H        -1.892255        -0.950825         0.459569
 H        -1.871317         0.015536         2.045256
 H        -3.682269         0.420762        -0.306044
 H        -1.333801         0.208528        -1.571114
 H        -2.189273         4.024336        -0.540756
 H        -3.513464         3.095788        -1.398173
 H        -3.479100         2.792419         1.229885
 H        -0.728385         3.149866         0.818767
 H        -1.136958         2.067173         2.276096
