19
Iteration:   762
 O         0.561976         0.700465         0.384159
 C        -0.825348         1.020709         0.602817
 C        -1.829435        -0.041348         0.948661
 C        -2.781220         0.793326         0.080946
 C        -1.545563         1.038214        -0.760380
 O        -1.558700         2.190144        -1.550783
 C        -2.440251         3.123941        -0.739530
 C        -2.709566         2.338258         0.514446
 C        -1.364700         2.249065         1.240730
 H         0.936644         1.542955         0.030906
 H        -1.537311        -1.031160         0.489809
 H        -2.208372        -0.121379         2.012246
 H        -3.589421         0.286089        -0.447020
 H        -1.097380         0.219234        -1.380827
 H        -2.007633         4.142498        -0.573420
 H        -3.394697         3.265901        -1.412160
 H        -3.647316         2.697401         1.129293
 H        -0.698831         3.108869         1.199790
 H        -1.669706         2.186301         2.237144
