19
Iteration:  3235charge 0 multiplicity 1
 O         0.571206         0.647343         0.618880
 C        -0.811994         1.039258         0.434439
 C        -1.781702        -0.121245         0.907578
 C        -2.746461         0.822293         0.074130
 C        -1.548735         1.089197        -0.915156
 O        -1.698640         2.287924        -1.602935
 C        -2.647059         3.098739        -0.793834
 C        -2.659394         2.302574         0.636372
 C        -1.178330         2.249959         1.270606
 H         1.099925         1.454684         0.364535
 H        -1.549984        -1.175702         0.689064
 H        -2.095212        -0.099451         1.942679
 H        -3.673051         0.457696        -0.331275
 H        -1.274444         0.319792        -1.633654
 H        -2.232023         4.117488        -0.794779
 H        -3.616625         3.186313        -1.233317
 H        -3.451398         2.502987         1.399454
 H        -0.580650         3.088880         0.847053
 H        -0.924389         2.228364         2.397731
