19
Iteration:  2105
 O         0.642310         0.589387         0.518593
 C        -0.697633         1.007677         0.466778
 C        -1.853255         0.027443         1.026664
 C        -2.777914         0.804849         0.003825
 C        -1.567710         1.020132        -0.884026
 O        -1.565195         2.319971        -1.388431
 C        -2.707059         3.049226        -0.829860
 C        -2.747348         2.288596         0.564213
 C        -1.207726         2.337533         1.157872
 H         1.086806         1.389668         0.115780
 H        -1.552823        -0.963325         0.721980
 H        -2.192748        -0.063113         2.125042
 H        -3.849066         0.598333        -0.240086
 H        -1.323585         0.222524        -1.565944
 H        -2.493284         4.092396        -0.734612
 H        -3.572151         2.719358        -1.519477
 H        -3.745578         2.389679         1.127404
 H        -0.583283         3.208072         0.910564
 H        -1.114894         2.247119         2.188725
