19
Iteration:  1255charge 0 multiplicity 1
 O         0.615886         0.825655         0.676506
 C        -0.752389         0.999426         0.466408
 C        -1.907828        -0.015631         0.908956
 C        -2.790671         0.811465         0.008038
 C        -1.549880         1.047101        -0.890927
 O        -1.661048         2.200505        -1.563639
 C        -2.519627         3.074991        -0.730147
 C        -2.678555         2.315354         0.557641
 C        -1.262294         2.197608         1.207185
 H         0.845305         0.110033         0.032531
 H        -1.688859        -0.929474         0.362922
 H        -2.145762        -0.126149         2.043875
 H        -3.744929         0.623824        -0.492798
 H        -1.281656         0.342767        -1.625930
 H        -1.870773         3.922900        -0.590200
 H        -3.432378         3.307394        -1.277697
 H        -3.386216         2.738868         1.294468
 H        -0.647263         3.172740         0.993936
 H        -1.207765         2.076674         2.404376
