19
Iteration:  4374
 O         0.568637         0.641258         0.610515
 C        -0.796267         0.938431         0.478426
 C        -1.831258        -0.087762         0.960621
 C        -2.790150         0.865202         0.092156
 C        -1.459298         1.047836        -0.935272
 O        -1.663471         2.311588        -1.583913
 C        -2.623295         3.070475        -0.730267
 C        -2.646464         2.327167         0.543205
 C        -1.232269         2.310632         1.167954
 H         0.986323         1.537188         0.708880
 H        -1.686583        -1.088352         0.582043
 H        -2.035313        -0.017591         2.014947
 H        -3.782886         0.475761        -0.160450
 H        -1.201987         0.315209        -1.678367
 H        -2.242182         4.057834        -0.782461
 H        -3.626438         2.956449        -1.317057
 H        -3.394569         2.520271         1.254940
 H        -0.444147         3.001212         0.988060
 H        -1.324082         2.148837         2.312381
