19
Iteration:  4450
 O         0.602867         0.582023         0.632961
 C        -0.717181         1.001969         0.463571
 C        -1.895939        -0.040835         1.002012
 C        -2.733483         0.842277         0.047422
 C        -1.496092         1.045542        -0.919657
 O        -1.597625         2.299975        -1.549320
 C        -2.725900         3.092587        -0.734094
 C        -2.674419         2.295718         0.527897
 C        -1.246422         2.283419         1.192724
 H         1.123390         1.129423         0.021059
 H        -1.768627        -1.030134         0.572829
 H        -1.948098        -0.018994         2.077426
 H        -3.762135         0.520971        -0.324071
 H        -1.070395         0.317456        -1.620525
 H        -2.386695         4.083154        -0.761081
 H        -3.631820         3.313440        -1.419952
 H        -3.445054         2.741269         1.164897
 H        -0.809410         3.197845         0.989525
 H        -1.325594         2.196702         2.281063
