19
Iteration:   326
 O         0.586517         0.657834         0.593340
 C        -0.775601         0.930168         0.528242
 C        -1.819619        -0.031844         0.987787
 C        -2.795556         0.841252         0.093357
 C        -1.520303         1.060107        -0.895071
 O        -1.682642         2.298909        -1.532919
 C        -2.602745         3.052710        -0.794025
 C        -2.640854         2.352070         0.469508
 C        -1.225378         2.275162         1.117479
 H         0.997045         1.146453         1.318455
 H        -1.841124        -1.116820         0.582648
 H        -1.835553        -0.243734         2.085645
 H        -3.626707         0.327934        -0.326884
 H        -1.282169         0.265494        -1.568827
 H        -2.234082         4.111647        -0.643381
 H        -3.507584         3.189473        -1.343214
 H        -3.423141         2.735433         1.075046
 H        -0.636706         3.223682         0.845551
 H        -1.328770         2.114303         2.189792
