19
Iteration:   447charge 0 multiplicity 1
 O         0.621744         0.756535         0.511278
 C        -0.761717         1.001372         0.524341
 C        -1.849480         0.006634         0.991954
 C        -2.769751         0.806848         0.060522
 C        -1.563259         0.967726        -0.858044
 O        -1.682770         2.233882        -1.623324
 C        -2.400338         3.100279        -0.795467
 C        -2.679634         2.293310         0.515785
 C        -1.381191         2.210415         1.328773
 H         1.043335         1.490773        -0.010814
 H        -1.721803        -1.018586         0.682220
 H        -2.149088        -0.078528         2.086023
 H        -3.853061         0.504400        -0.119240
 H        -1.223902         0.194360        -1.606046
 H        -1.690785         3.977886        -0.651107
 H        -3.401251         3.446144        -1.196136
 H        -3.407146         2.757589         1.067954
 H        -0.817740         3.166702         1.264739
 H        -1.752833         1.887310         2.329689
