19
Iteration:  4542charge 0 multiplicity 1
 O         0.554175         0.629888         0.592660
 C        -0.769014         0.981913         0.524436
 C        -1.824767        -0.071081         0.975833
 C        -2.736186         0.866758         0.082505
 C        -1.513288         1.102312        -0.929122
 O        -1.677746         2.263320        -1.590376
 C        -2.538531         3.036732        -0.771870
 C        -2.626086         2.331134         0.555900
 C        -1.314229         2.240468         1.199962
 H         1.047346         1.458289         0.364363
 H        -1.618007        -1.031248         0.494332
 H        -2.138718         0.067109         2.021800
 H        -3.608730         0.442105        -0.341760
 H        -1.372577         0.256218        -1.651490
 H        -2.149778         4.051425        -0.678877
 H        -3.522419         3.380400        -1.184698
 H        -3.365851         2.791606         1.166009
 H        -0.793349         3.143603         1.062500
 H        -1.451633         2.100282         2.332034
