19
Iteration:  1436charge 0 multiplicity 1
 O         0.549063         0.629832         0.610178
 C        -0.771028         0.954700         0.438158
 C        -1.853955         0.009924         0.980126
 C        -2.747123         0.872851        -0.000606
 C        -1.519754         1.038058        -0.851482
 O        -1.543898         2.349738        -1.483283
 C        -2.624389         3.019236        -0.809390
 C        -2.725085         2.277094         0.609305
 C        -1.255665         2.292223         1.180634
 H         1.109319         0.699487        -0.144456
 H        -1.442069        -1.026974         0.777355
 H        -2.263453         0.032713         1.941065
 H        -3.659056         0.530771        -0.399091
 H        -1.175417         0.283122        -1.621190
 H        -2.371819         4.088348        -0.693962
 H        -3.555189         2.848695        -1.397436
 H        -3.614094         2.665707         1.164887
 H        -0.818261         3.162855         0.708377
 H        -1.143055         2.291997         2.353805
