19
Iteration:  3522
 O         0.560027         0.683212         0.561546
 C        -0.794238         1.002814         0.473483
 C        -1.804830        -0.191002         0.976861
 C        -2.790379         0.807906         0.069155
 C        -1.542519         1.087185        -0.890686
 O        -1.643683         2.287343        -1.591440
 C        -2.577535         3.105587        -0.771128
 C        -2.632050         2.319963         0.600193
 C        -1.264287         2.293112         1.196488
 H         1.046130         1.499572         0.509456
 H        -1.570235        -1.138350         0.598026
 H        -1.998536        -0.038640         2.005434
 H        -3.690432         0.356801        -0.331957
 H        -1.331707         0.182109        -1.561562
 H        -2.128975         4.096949        -0.743757
 H        -3.678067         3.072880        -1.171653
 H        -3.331882         2.839870         1.309424
 H        -0.682800         3.105250         0.950049
 H        -1.242969         2.202375         2.332239
