19
Iteration:  1177
 O         0.562625         0.754028         0.696979
 C        -0.774592         0.919490         0.497610
 C        -1.883793        -0.028885         0.881707
 C        -2.814588         0.767567         0.015268
 C        -1.538294         1.024803        -0.835205
 O        -1.593620         2.378198        -1.559626
 C        -2.597017         3.056992        -0.766513
 C        -2.697660         2.291960         0.547267
 C        -1.140716         2.291806         1.143430
 H         0.960604         0.042860         0.110693
 H        -1.681927        -1.082846         0.651658
 H        -2.140311        -0.026051         1.963530
 H        -3.801646         0.503522        -0.346973
 H        -1.244102         0.352494        -1.622291
 H        -2.472216         4.142629        -0.627573
 H        -3.571558         2.870978        -1.320361
 H        -3.367075         2.609951         1.374013
 H        -0.482464         3.177279         0.770281
 H        -1.158259         2.235192         2.323250
