19
Iteration:  3438
 O         0.661614         0.537191         0.625024
 C        -0.719886         1.025165         0.436218
 C        -1.814209        -0.047416         0.934172
 C        -2.743839         0.910839         0.029874
 C        -1.537726         1.017406        -0.894770
 O        -1.686597         2.352193        -1.452810
 C        -2.671142         3.031753        -0.765178
 C        -2.731538         2.325514         0.605947
 C        -1.268918         2.316378         1.108210
 H         1.341848         1.209884         0.309210
 H        -1.581392        -1.190523         0.686093
 H        -1.856189        -0.011182         2.032370
 H        -3.636405         0.514361        -0.525772
 H        -1.337980         0.220960        -1.582058
 H        -2.500873         4.076897        -0.922354
 H        -3.637300         2.865328        -1.183649
 H        -3.514283         2.558691         1.268414
 H        -0.605887         3.253662         0.789893
 H        -1.242178         2.133233         2.197359
