19
Iteration:  1800
 O         0.604887         0.684634         0.560921
 C        -0.713399         0.967299         0.523884
 C        -1.852342         0.000171         0.959159
 C        -2.754697         0.796931         0.042705
 C        -1.499639         1.046330        -0.839463
 O        -1.724975         2.395983        -1.633708
 C        -2.624896         3.043986        -0.801459
 C        -2.678757         2.291486         0.596759
 C        -1.200786         2.235376         1.167338
 H         0.692418         0.220838         1.383845
 H        -1.640889        -1.058915         0.702756
 H        -1.969325         0.053868         2.062115
 H        -3.668710         0.211700        -0.322027
 H        -1.200775         0.294668        -1.601950
 H        -2.276240         4.130037        -0.772320
 H        -3.724393         3.054437        -1.295147
 H        -3.397182         2.784884         1.337061
 H        -0.636041         3.020425         0.885023
 H        -1.179078         2.243959         2.262057
