19
Iteration:  3565
 O         0.578579         0.549787         0.662555
 C        -0.733596         1.005707         0.426252
 C        -1.803627        -0.004005         0.922520
 C        -2.729172         0.758683        -0.011154
 C        -1.564388         1.065014        -0.953089
 O        -1.623401         2.329030        -1.573830
 C        -2.673062         3.016323        -0.642589
 C        -2.694918         2.371898         0.667908
 C        -1.245870         2.345714         1.104140
 H         1.251123         1.177041         0.468231
 H        -1.732088        -1.061213         0.761368
 H        -1.998410         0.220419         1.996181
 H        -3.693136         0.455192        -0.418648
 H        -1.186160         0.217213        -1.662452
 H        -2.460825         4.097208        -0.587037
 H        -3.584361         2.704749        -1.227518
 H        -3.607027         2.662743         1.329133
 H        -0.635962         3.234169         0.755857
 H        -1.116808         2.333480         2.270462
