19
Iteration:  4752charge 0 multiplicity 1
 O         0.606345         0.579597         0.579956
 C        -0.737971         0.972843         0.505360
 C        -1.849874        -0.001857         0.955842
 C        -2.768630         0.871856        -0.035677
 C        -1.556456         0.967486        -0.871433
 O        -1.562415         2.305534        -1.475590
 C        -2.646840         3.089411        -0.742415
 C        -2.689446         2.307159         0.599700
 C        -1.222803         2.308311         1.124662
 H         1.056290         1.361444         0.134376
 H        -1.739797        -1.078826         0.605511
 H        -2.362272         0.057890         1.913704
 H        -3.752603         0.558814        -0.337368
 H        -1.465969         0.218930        -1.664225
 H        -2.433752         4.192621        -0.813879
 H        -3.687442         3.042991        -1.251631
 H        -3.584762         2.740577         1.205027
 H        -0.562634         3.230045         1.087623
 H        -1.313125         2.142081         2.295398
