19
Iteration:   115
 O         0.557686         0.925437         0.316260
 C        -0.822139         0.938668         0.501102
 C        -1.955855        -0.045802         0.924435
 C        -2.826732         0.822170         0.119718
 C        -1.572204         0.971617        -0.826704
 O        -1.442934         2.218838        -1.454217
 C        -2.407134         3.027401        -0.759070
 C        -2.705961         2.290564         0.567165
 C        -1.322727         2.228905         1.254303
 H         0.990310         1.184324         1.134712
 H        -1.948487        -1.105603         0.417419
 H        -2.127028        -0.248097         2.046477
 H        -3.859567         0.474393        -0.137450
 H        -1.365821         0.077011        -1.463960
 H        -2.049592         4.086096        -0.614608
 H        -3.282315         3.267250        -1.476903
 H        -3.683676         2.720009         0.938201
 H        -0.714194         3.102446         0.901897
 H        -1.252920         2.151846         2.356864
