19
Iteration:  3947
 O         0.603989         0.671512         0.575552
 C        -0.792632         1.012152         0.475866
 C        -1.796701        -0.046019         0.933300
 C        -2.777323         0.866773         0.017161
 C        -1.600137         1.026973        -0.815918
 O        -1.605306         2.234672        -1.607263
 C        -2.567025         3.105055        -0.772931
 C        -2.709770         2.309100         0.610865
 C        -1.260742         2.228214         1.234653
 H         1.040335         1.486280         0.256779
 H        -1.753237        -1.057099         0.413159
 H        -2.000971        -0.130304         2.018575
 H        -3.792391         0.489182        -0.337745
 H        -1.295686         0.139370        -1.410711
 H        -2.189898         4.154470        -0.683502
 H        -3.483090         3.074540        -1.356083
 H        -3.438567         2.736817         1.368370
 H        -0.404037         3.091056         0.965175
 H        -1.425313         2.302514         2.349375
