19
Iteration:  3204
 O         0.676407         0.699722         0.549916
 C        -0.741004         0.969402         0.433343
 C        -1.799833        -0.052440         0.932514
 C        -2.784927         0.813791         0.061620
 C        -1.602940         1.044261        -0.856501
 O        -1.660182         2.273673        -1.462893
 C        -2.564692         3.116696        -0.770083
 C        -2.748176         2.281456         0.563886
 C        -1.290466         2.230888         1.176304
 H         1.152177         1.468134         0.226709
 H        -1.629243        -1.042741         0.614819
 H        -2.061317         0.068426         1.979134
 H        -3.718381         0.445579        -0.379051
 H        -1.481146         0.189926        -1.599666
 H        -2.072148         4.017267        -0.609147
 H        -3.489894         3.454191        -1.326616
 H        -3.502349         2.687816         1.307258
 H        -0.643847         3.037071         0.846895
 H        -1.244980         2.064405         2.329388
