19
Iteration:  3685charge 0 multiplicity 1
 O         0.635997         0.631133         0.653256
 C        -0.745032         1.003239         0.451382
 C        -1.832408        -0.018717         0.951435
 C        -2.860016         0.794869         0.033915
 C        -1.532666         1.033010        -0.858409
 O        -1.655611         2.273362        -1.579576
 C        -2.617127         3.045232        -0.767881
 C        -2.687808         2.384740         0.606125
 C        -1.244568         2.272020         1.153310
 H         1.320980         1.298008         0.348760
 H        -1.570228        -0.899269         0.345884
 H        -2.017710        -0.195068         2.025393
 H        -3.792666         0.305725        -0.346605
 H        -1.184641         0.450231        -1.744394
 H        -2.259435         4.121178        -0.739723
 H        -3.595722         2.937018        -1.169014
 H        -3.364877         2.805327         1.404218
 H        -0.604809         3.156421         0.838136
 H        -1.201045         2.189337         2.295758
