19
Iteration:  2471charge 0 multiplicity 1
 O         0.655627         0.686443         0.538274
 C        -0.744211         1.014638         0.580016
 C        -1.794481        -0.032873         0.974847
 C        -2.818777         0.807917         0.043236
 C        -1.627007         1.054175        -0.936373
 O        -1.630533         2.261985        -1.612623
 C        -2.563868         3.016025        -0.770991
 C        -2.734884         2.355029         0.580770
 C        -1.258724         2.262151         1.264045
 H         1.070881         1.497607         0.286459
 H        -1.591583        -1.129680         0.600044
 H        -2.077076         0.043979         2.023670
 H        -3.678037         0.223492        -0.312141
 H        -1.362873         0.146141        -1.569292
 H        -2.094790         3.972619        -0.727619
 H        -3.487497         3.121691        -1.243121
 H        -3.590571         2.682684         1.215365
 H        -0.668211         3.069531         0.925977
 H        -1.234019         2.288336         2.434612
