19
Iteration:  3264charge 0 multiplicity 1
 O         0.734046         0.494422         0.604605
 C        -0.744112         1.045937         0.475561
 C        -1.846663        -0.029213         0.957281
 C        -2.760595         0.856447         0.113081
 C        -1.491316         1.043443        -0.953792
 O        -1.694166         2.328775        -1.562258
 C        -2.731206         3.109152        -0.720262
 C        -2.666120         2.276675         0.546400
 C        -1.307566         2.344098         1.174662
 H         1.240022         1.276899         0.454459
 H        -1.615312        -1.013019         0.335465
 H        -2.104221        -0.273900         2.033663
 H        -3.728274         0.399974        -0.201562
 H        -1.195677         0.357404        -1.704087
 H        -2.201062         4.168501        -0.580618
 H        -3.763874         2.974632        -1.144174
 H        -3.435100         2.374320         1.269622
 H        -0.758509         3.282814         0.826840
 H        -1.319440         2.337104         2.191454
