19
Iteration:  4609charge 0 multiplicity 1
 O         0.568032         0.584357         0.614849
 C        -0.749269         0.947007         0.524417
 C        -1.870045         0.029100         1.011488
 C        -2.758175         0.725846         0.029136
 C        -1.516504         1.093806        -0.940446
 O        -1.583962         2.352753        -1.479089
 C        -2.686564         3.065344        -0.813264
 C        -2.684993         2.333181         0.543868
 C        -1.220376         2.285408         1.168654
 H         1.034147         1.224852         0.032202
 H        -1.720128        -0.896022         0.519501
 H        -2.355108         0.012883         1.960397
 H        -3.681179         0.382285        -0.187241
 H        -1.204181         0.363654        -1.615878
 H        -2.255098         4.062632        -0.879890
 H        -3.672158         3.147695        -1.392345
 H        -3.360217         2.668890         1.312250
 H        -0.472367         2.980930         0.864293
 H        -1.043912         2.116922         2.208125
