19
Iteration:  3863charge 0 multiplicity 1
 O         0.633462         0.565886         0.654247
 C        -0.763628         0.967849         0.512194
 C        -1.847338        -0.038955         0.966649
 C        -2.728163         0.886812         0.020397
 C        -1.524370         1.079832        -0.889637
 O        -1.622536         2.359434        -1.599089
 C        -2.712527         3.067196        -0.773447
 C        -2.728831         2.292233         0.587243
 C        -1.163476         2.278727         1.163777
 H         1.170144         1.347122         0.388491
 H        -1.565713        -1.048523         0.637180
 H        -2.153523        -0.219845         2.014966
 H        -3.816693         0.581384        -0.295450
 H        -1.563906         0.185633        -1.515724
 H        -2.457358         4.145585        -0.791954
 H        -3.644050         2.760965        -1.323555
 H        -3.588111         2.541042         1.194843
 H        -0.596199         3.046427         0.761391
 H        -1.150700         2.268557         2.276092
