19
Iteration:   154
 O         0.598856         0.711073         0.493884
 C        -0.772900         0.935209         0.517461
 C        -1.874686        -0.017666         0.975944
 C        -2.724778         0.804870         0.100972
 C        -1.523962         1.051023        -0.880296
 O        -1.665682         2.286882        -1.638032
 C        -2.508105         3.123124        -0.797406
 C        -2.684329         2.290315         0.517507
 C        -1.325100         2.234888         1.288084
 H         0.950228         0.999437         1.365771
 H        -1.865539        -0.949422         0.545177
 H        -1.929071         0.022340         2.055400
 H        -3.631762         0.257166        -0.269012
 H        -1.291602         0.260704        -1.653751
 H        -1.957316         4.029860        -0.557918
 H        -3.558381         3.304408        -1.206641
 H        -3.481221         2.583386         1.194564
 H        -0.692859         3.067197         1.028940
 H        -1.323506         2.214097         2.397671
