19
Iteration:  1787
 O         0.685282         0.641864         0.614717
 C        -0.764688         0.961603         0.508052
 C        -1.854476        -0.093372         1.041488
 C        -2.708603         0.775865         0.066391
 C        -1.478055         1.088728        -0.913435
 O        -1.769977         2.314879        -1.594380
 C        -2.701196         3.156481        -0.769219
 C        -2.617223         2.341252         0.479539
 C        -1.219531         2.311596         1.136910
 H         0.969524         0.205971         1.476352
 H        -1.704710        -1.083492         0.445918
 H        -2.257492        -0.259416         2.007811
 H        -3.704211         0.610667        -0.368069
 H        -1.218595         0.358974        -1.694668
 H        -2.359693         4.165592        -0.566094
 H        -3.747530         3.163437        -1.236439
 H        -3.507723         2.574872         1.202555
 H        -0.612994         3.137664         0.806575
 H        -1.189158         2.134530         2.271320
