19
Iteration:    90
 O         0.582227         0.724419         0.427066
 C        -0.784943         0.929777         0.474659
 C        -1.842978        -0.053742         1.070315
 C        -2.792333         0.781949         0.027074
 C        -1.566511         1.025220        -0.831566
 O        -1.517851         2.354654        -1.505718
 C        -2.579895         3.114959        -0.820491
 C        -2.658927         2.343456         0.527145
 C        -1.326520         2.191582         1.197405
 H         0.922968         0.839638         1.311068
 H        -1.701713        -1.031403         0.807500
 H        -1.868610         0.007405         2.207051
 H        -3.748147         0.415017        -0.484984
 H        -1.363462         0.164123        -1.573300
 H        -2.273820         4.168217        -0.741818
 H        -3.443836         3.120122        -1.375129
 H        -3.480412         2.815136         1.168873
 H        -0.749501         3.067702         1.196496
 H        -1.509766         1.990932         2.270965
