19
Iteration:  2866
 O         0.658590         0.724665         0.572936
 C        -0.747805         0.992346         0.482943
 C        -1.817737         0.013870         0.998855
 C        -2.761766         0.812984         0.007563
 C        -1.549782         1.089549        -0.879515
 O        -1.675396         2.273188        -1.562572
 C        -2.593799         3.111820        -0.707117
 C        -2.716307         2.286615         0.560291
 C        -1.268973         2.244594         1.119011
 H         0.651900        -0.216349         0.781139
 H        -1.632200        -0.971478         0.506072
 H        -1.741253        -0.140934         2.026269
 H        -3.618884         0.341305        -0.457049
 H        -1.335836         0.137186        -1.473205
 H        -2.243585         4.117538        -0.593867
 H        -3.531360         2.983812        -1.224862
 H        -3.454468         2.686898         1.268712
 H        -0.705161         3.193516         1.050520
 H        -1.460022         2.110045         2.234892
