19
Iteration:  2459charge 0 multiplicity 1
 O         0.652659         0.731904         0.601480
 C        -0.743948         0.933416         0.505453
 C        -1.829451        -0.021153         0.960214
 C        -2.760789         0.818043         0.097681
 C        -1.520345         0.987790        -0.935235
 O        -1.723472         2.212180        -1.591338
 C        -2.563574         3.143674        -0.740862
 C        -2.673721         2.307944         0.516748
 C        -1.298259         2.280350         1.228934
 H         1.066468         1.496667         0.128277
 H        -1.736953        -1.068117         0.497585
 H        -1.933282        -0.207740         2.015349
 H        -3.817179         0.657355         0.055934
 H        -1.287011         0.220145        -1.768091
 H        -2.167676         4.101367        -0.604113
 H        -3.489391         3.199870        -1.248492
 H        -3.625056         2.697232         1.006934
 H        -0.714789         3.138720         1.056807
 H        -1.296194         2.071566         2.375418
