19
Iteration:  3810charge 0 multiplicity 1
 O         0.600591         0.668514         0.580572
 C        -0.810104         0.998757         0.498234
 C        -1.851021        -0.048832         0.954140
 C        -2.797610         0.747191         0.082982
 C        -1.491040         1.094961        -0.912449
 O        -1.648365         2.314993        -1.572861
 C        -2.536465         3.078329        -0.820244
 C        -2.717133         2.251057         0.589755
 C        -1.261926         2.261222         1.229221
 H         1.115256         1.403668         0.179020
 H        -1.887597        -1.082488         0.624446
 H        -1.903036        -0.036788         2.063826
 H        -3.823150         0.283079        -0.074866
 H        -1.283667         0.195149        -1.510540
 H        -1.950329         3.969592        -0.687175
 H        -3.409987         3.366739        -1.312001
 H        -3.440369         2.841130         1.107756
 H        -0.791081         3.183546         0.849817
 H        -1.096544         2.360542         2.448500
