19
Iteration:  2087
 O         0.627957         0.561147         0.610474
 C        -0.731297         0.947962         0.493179
 C        -1.799873        -0.015852         1.027020
 C        -2.742475         0.769800         0.095104
 C        -1.495893         1.083635        -0.855523
 O        -1.638867         2.422940        -1.534117
 C        -2.728282         3.036628        -0.783576
 C        -2.689294         2.329248         0.513791
 C        -1.291013         2.254759         1.076263
 H         1.149624         1.241491         0.093220
 H        -1.806076        -1.025931         0.658867
 H        -1.998922         0.006113         2.111984
 H        -3.596697         0.244799        -0.323288
 H        -1.316160         0.279421        -1.604872
 H        -2.401567         4.083305        -0.617125
 H        -3.698742         2.957673        -1.300872
 H        -3.248078         2.766572         1.277107
 H        -0.723749         3.133694         0.724651
 H        -1.262458         2.507874         2.239383
