19
Iteration:   866charge 0 multiplicity 1
 O         0.662258         0.670807         0.614274
 C        -0.739307         0.980386         0.449979
 C        -1.881663        -0.003199         0.978354
 C        -2.720153         0.864743         0.001782
 C        -1.526311         1.071694        -0.883202
 O        -1.577167         2.320872        -1.484942
 C        -2.702631         3.038394        -0.776409
 C        -2.702186         2.335521         0.554701
 C        -1.231142         2.284230         1.152311
 H         0.650864        -0.288201         0.608894
 H        -1.743559        -1.019027         0.592864
 H        -2.245334         0.005505         1.945490
 H        -3.651847         0.362670        -0.314533
 H        -1.459644         0.196126        -1.525917
 H        -2.466030         4.116805        -0.762060
 H        -3.639716         2.852587        -1.353314
 H        -3.504276         2.643019         1.144265
 H        -0.720931         3.230655         0.889715
 H        -1.345109         2.001186         2.250195
