19
Iteration:  2429charge 0 multiplicity 1
 O         0.619234         0.692140         0.669216
 C        -0.763650         0.976130         0.489056
 C        -1.768381        -0.016035         0.924834
 C        -2.787023         0.765172         0.021895
 C        -1.584555         1.053916        -0.914106
 O        -1.727164         2.212353        -1.631707
 C        -2.554319         3.097618        -0.697961
 C        -2.725738         2.300242         0.592015
 C        -1.218338         2.306043         1.226061
 H         1.112095         1.328736         0.102721
 H        -1.423918        -1.097734         0.537889
 H        -1.974655         0.009557         2.015689
 H        -3.853129         0.511507        -0.193727
 H        -1.324247         0.300565        -1.673262
 H        -2.153779         4.144446        -0.648408
 H        -3.468644         3.237908        -1.285712
 H        -3.551255         2.777679         1.048752
 H        -0.648287         3.075715         0.737276
 H        -0.984047         2.253637         2.334374
