19
Iteration:   401charge 0 multiplicity 1
 O         0.675880         0.664866         0.741407
 C        -0.767174         0.999867         0.498326
 C        -1.865673        -0.001437         0.936901
 C        -2.786665         0.829391         0.097420
 C        -1.613974         1.035712        -0.929841
 O        -1.646170         2.269395        -1.540641
 C        -2.561675         3.048354        -0.746632
 C        -2.673138         2.298724         0.471695
 C        -1.237910         2.306650         1.136532
 H         1.099100         1.047273        -0.061258
 H        -1.790819        -0.998937         0.379969
 H        -2.043631        -0.283025         1.918409
 H        -3.748780         0.551563        -0.217747
 H        -1.488989         0.328838        -1.685339
 H        -2.182279         4.136743        -0.524409
 H        -3.499746         3.000072        -1.408094
 H        -3.509122         2.484886         1.157124
 H        -0.714406         3.256942         0.739963
 H        -1.334286         2.137912         2.199388
