19
Iteration:   462
 O         0.693986         0.662819         0.505129
 C        -0.759680         1.030728         0.449403
 C        -1.841418         0.010346         0.962431
 C        -2.862585         0.747796         0.054263
 C        -1.589024         1.029579        -0.882836
 O        -1.581215         2.190700        -1.575133
 C        -2.462267         3.102917        -0.747614
 C        -2.764524         2.352712         0.575508
 C        -1.385812         2.306554         1.277197
 H         1.169198         1.508850         0.366715
 H        -1.615000        -1.050201         0.725550
 H        -1.955998         0.093957         2.129611
 H        -3.769878         0.245983        -0.389455
 H        -1.354352         0.091552        -1.507067
 H        -1.988309         3.998335        -0.496697
 H        -3.267435         3.333510        -1.386356
 H        -3.706126         2.723713         1.122731
 H        -0.831988         3.212179         1.204263
 H        -1.315677         2.030901         2.358120
