19
Iteration:   934
 O         0.576975         0.730093         0.446338
 C        -0.770570         1.000963         0.512560
 C        -1.854272        -0.052388         1.007068
 C        -2.708345         0.790237         0.088252
 C        -1.496156         1.028508        -0.869330
 O        -1.701758         2.274225        -1.661565
 C        -2.468761         3.114079        -0.754034
 C        -2.683540         2.333627         0.498874
 C        -1.356548         2.201279         1.350849
 H         0.890478         0.892056         1.337958
 H        -1.634611        -1.100816         0.633789
 H        -2.219045        -0.000974         1.979386
 H        -3.589294         0.337781        -0.341077
 H        -1.220180         0.287093        -1.648338
 H        -1.854422         4.006729        -0.633012
 H        -3.422975         3.390077        -1.238543
 H        -3.490530         2.840237         1.062104
 H        -0.702789         3.111621         1.047093
 H        -1.519372         1.989421         2.494804
