19
Iteration:  1726charge 0 multiplicity 1
 O         0.680370         0.710851         0.428505
 C        -0.738191         0.932861         0.531841
 C        -1.893777        -0.027166         1.001279
 C        -2.775549         0.853729         0.031292
 C        -1.567665         1.043625        -0.862476
 O        -1.600949         2.307007        -1.464397
 C        -2.621089         3.070294        -0.797726
 C        -2.707258         2.318365         0.533796
 C        -1.306163         2.223569         1.213429
 H         1.201991         0.933950         1.228698
 H        -1.634909        -0.997141         0.642125
 H        -2.231756        -0.052882         2.078954
 H        -3.692592         0.341915        -0.441204
 H        -1.376084         0.177224        -1.522180
 H        -2.306729         4.150107        -0.812169
 H        -3.488094         2.995045        -1.324243
 H        -3.563165         2.732003         1.027389
 H        -0.567241         3.064188         0.867347
 H        -1.110375         2.206136         2.281136
