19
Iteration:  2448
 O         0.615632         0.745138         0.650868
 C        -0.736818         0.993791         0.427814
 C        -1.825465        -0.070546         0.971084
 C        -2.744317         0.833889         0.107601
 C        -1.570936         0.975499        -0.830087
 O        -1.759873         2.275571        -1.609291
 C        -2.547017         3.104422        -0.789640
 C        -2.636730         2.302615         0.555667
 C        -1.281548         2.255436         1.152065
 H         1.129990         1.402590         0.080927
 H        -1.731133        -1.051882         0.392319
 H        -2.014629        -0.165337         2.030035
 H        -3.596056         0.383382        -0.383252
 H        -1.229810         0.127858        -1.532267
 H        -1.991031         3.992948        -0.627490
 H        -3.450324         3.359906        -1.251335
 H        -3.343019         2.568973         1.401207
 H        -0.724574         3.150449         1.099808
 H        -1.448022         1.976766         2.264591
