19
Iteration:  2111
 O         0.613055         0.617975         0.498215
 C        -0.756889         1.016000         0.416784
 C        -1.867990         0.028059         1.031839
 C        -2.759505         0.780911         0.017595
 C        -1.528673         1.038440        -0.902847
 O        -1.525518         2.287828        -1.404815
 C        -2.707372         2.979984        -0.786999
 C        -2.759539         2.341242         0.574936
 C        -1.222697         2.337517         1.202102
 H         1.142097         1.376416         0.151944
 H        -1.646671        -1.020119         0.593363
 H        -2.188901        -0.046278         2.023873
 H        -3.744714         0.433668        -0.290507
 H        -1.355355         0.165816        -1.595574
 H        -2.408838         4.095792        -0.740179
 H        -3.537594         2.819260        -1.415896
 H        -3.616678         2.594597         1.200223
 H        -0.656894         3.242816         0.859762
 H        -0.967932         2.393735         2.354586
