19
Iteration:  4102
 O         0.595521         0.669508         0.562937
 C        -0.749826         1.036006         0.527420
 C        -1.860150        -0.063351         1.007809
 C        -2.843869         0.838766         0.067758
 C        -1.561413         0.985366        -0.884755
 O        -1.575314         2.278374        -1.610078
 C        -2.594183         3.090498        -0.804760
 C        -2.702784         2.355163         0.605016
 C        -1.241715         2.228867         1.179260
 H         1.091012         1.505654         0.430123
 H        -1.693689        -0.978499         0.446974
 H        -1.681354        -0.242687         2.094320
 H        -3.722549         0.372212        -0.441943
 H        -1.384612         0.189124        -1.565815
 H        -2.207177         4.072818        -0.413611
 H        -3.560345         3.265877        -1.340049
 H        -3.463874         2.618760         1.292915
 H        -0.591899         3.064554         0.917320
 H        -1.278852         2.125733         2.232305
