19
Iteration:  4867charge 0 multiplicity 1
 O         0.588942         0.677357         0.548300
 C        -0.776356         0.963889         0.460910
 C        -1.866695        -0.021958         0.981055
 C        -2.844082         0.863253         0.101529
 C        -1.564407         0.980334        -0.898628
 O        -1.508900         2.282763        -1.499349
 C        -2.557888         3.128484        -0.795731
 C        -2.714825         2.253159         0.627532
 C        -1.293905         2.279598         1.149843
 H         1.271854         1.216936         0.043586
 H        -1.935224        -0.960449         0.424452
 H        -2.025521        -0.305900         2.053418
 H        -3.823770         0.553472        -0.296538
 H        -1.168369         0.127339        -1.399202
 H        -2.146240         4.154799        -0.720563
 H        -3.479245         3.268842        -1.488071
 H        -3.446605         2.474885         1.321028
 H        -0.761768         3.188161         0.835207
 H        -1.163005         2.373820         2.202762
