19
Iteration:  1790charge 0 multiplicity 1
 O         0.669617         0.653802         0.601165
 C        -0.755215         0.955834         0.514353
 C        -1.855733        -0.073220         1.026983
 C        -2.721685         0.756344         0.069234
 C        -1.453234         1.075939        -0.877103
 O        -1.767760         2.345286        -1.614117
 C        -2.684829         3.128383        -0.786648
 C        -2.620967         2.336237         0.505188
 C        -1.217678         2.289099         1.152993
 H         0.837178         0.225020         1.426538
 H        -1.691848        -0.996886         0.491609
 H        -2.252447        -0.196558         2.082856
 H        -3.769630         0.502108        -0.382678
 H        -1.291923         0.422007        -1.749620
 H        -2.326782         4.234766        -0.599100
 H        -3.805522         3.155130        -1.288254
 H        -3.437623         2.660147         1.210409
 H        -0.665690         3.081697         0.831265
 H        -1.125107         2.125468         2.192000
