19
Iteration:   921
 O         0.635500         0.810968         0.427844
 C        -0.785210         1.002875         0.533239
 C        -1.850744         0.001751         0.950436
 C        -2.853792         0.832978        -0.041270
 C        -1.573884         1.039163        -0.830295
 O        -1.675776         2.161103        -1.527288
 C        -2.381645         3.105798        -0.761511
 C        -2.719047         2.277102         0.542091
 C        -1.303699         2.241980         1.264525
 H         1.027984         0.576899         1.318445
 H        -1.724710        -0.973314         0.501929
 H        -1.930630        -0.114988         1.968400
 H        -3.859242         0.450732        -0.329745
 H        -1.143933         0.203463        -1.392200
 H        -1.849663         4.046405        -0.523989
 H        -3.335212         3.394218        -1.327289
 H        -3.585667         2.522579         1.062622
 H        -0.733959         3.188360         1.333620
 H        -1.422074         1.953816         2.353958
