19
Iteration:  1804charge 0 multiplicity 1
 O         0.594639         0.685701         0.551415
 C        -0.742213         0.993209         0.500663
 C        -1.819670         0.009146         0.940255
 C        -2.756184         0.833531         0.035311
 C        -1.555483         1.049344        -0.873744
 O        -1.679963         2.365978        -1.616468
 C        -2.616591         3.024120        -0.780872
 C        -2.703696         2.282198         0.613762
 C        -1.202510         2.233302         1.184230
 H         0.862257         0.180352         1.390816
 H        -1.697828        -1.022945         0.768754
 H        -1.928889         0.137197         2.067531
 H        -3.632467         0.312910        -0.329698
 H        -1.114425         0.181218        -1.431509
 H        -2.284574         4.110635        -0.719269
 H        -3.659400         2.974770        -1.243697
 H        -3.415953         2.621249         1.291212
 H        -0.541819         3.151156         0.822649
 H        -1.283033         2.253099         2.251220
