19
Iteration:  2973
 O         0.639412         0.585041         0.669881
 C        -0.729560         1.050422         0.453043
 C        -1.835352        -0.008285         0.893972
 C        -2.743505         0.829423         0.002330
 C        -1.523792         1.044045        -0.922613
 O        -1.756744         2.312836        -1.417431
 C        -2.611780         3.060987        -0.708909
 C        -2.605836         2.249108         0.541194
 C        -1.236151         2.327814         1.142234
 H         1.167288         0.910712        -0.040408
 H        -1.622394        -0.952771         0.345061
 H        -2.145583        -0.121187         1.868412
 H        -3.734186         0.548678        -0.395650
 H        -1.407571         0.238415        -1.715901
 H        -2.441202         4.075976        -0.666261
 H        -3.627394         3.103519        -1.189232
 H        -3.553938         2.632742         1.121010
 H        -0.874795         3.225976         0.884655
 H        -1.263446         2.145745         2.218402
