19
Iteration:  3305charge 0 multiplicity 1
 O         0.610182         0.667533         0.568087
 C        -0.721900         0.926403         0.482541
 C        -1.871895        -0.093216         0.981797
 C        -2.703531         0.783323         0.072510
 C        -1.518397         1.022228        -0.910850
 O        -1.632185         2.341880        -1.477016
 C        -2.752531         3.145180        -0.749932
 C        -2.654250         2.297694         0.555888
 C        -1.252820         2.288934         1.097473
 H         1.157431         1.383287         0.123512
 H        -1.784385        -1.105949         0.612520
 H        -2.083200        -0.230421         2.044253
 H        -3.801201         0.596576        -0.095125
 H        -0.966747         0.310698        -1.594874
 H        -2.347191         4.111378        -0.616682
 H        -3.686499         3.123114        -1.346059
 H        -3.401699         2.581133         1.301012
 H        -0.678816         3.198877         0.821792
 H        -1.167831         2.248928         2.214015
