19
Iteration:  2555
 O         0.593275         0.604845         0.698183
 C        -0.758332         1.026762         0.555664
 C        -1.775038        -0.073823         0.920144
 C        -2.742996         0.804964        -0.009058
 C        -1.566837         1.053267        -0.875828
 O        -1.734363         2.297519        -1.621590
 C        -2.625910         3.083184        -0.771603
 C        -2.655135         2.339716         0.597032
 C        -1.208312         2.302410         1.182679
 H         1.238728         1.230167         0.223711
 H        -1.382546        -0.972819         0.660924
 H        -2.028103        -0.053467         1.953900
 H        -3.633204         0.452391        -0.458566
 H        -1.452712         0.241220        -1.629287
 H        -2.251788         4.077745        -0.972110
 H        -3.716902         2.852850        -1.136124
 H        -3.518199         2.572281         1.283220
 H        -0.777057         3.212608         0.696231
 H        -1.049273         2.326598         2.242905
