19
Iteration:  3878
 O         0.534009         0.570050         0.641078
 C        -0.750136         0.936950         0.568137
 C        -1.799868        -0.023083         0.937586
 C        -2.753232         0.782104         0.082793
 C        -1.563623         1.063097        -0.937725
 O        -1.592156         2.350042        -1.562438
 C        -2.745596         3.074594        -0.750265
 C        -2.593470         2.322182         0.531418
 C        -1.242215         2.315108         1.105217
 H         1.220239         1.266500         0.401001
 H        -1.711327        -1.010555         0.504463
 H        -2.031872        -0.086331         2.027427
 H        -3.627425         0.405437        -0.307438
 H        -1.032726         0.404723        -1.652656
 H        -2.463597         4.095022        -0.641192
 H        -3.692690         3.022915        -1.208731
 H        -3.280894         2.589804         1.351024
 H        -0.653958         3.285243         0.785461
 H        -1.236080         2.466239         2.310178
