19
Iteration:  3259charge 0 multiplicity 1
 O         0.720863         0.507442         0.596501
 C        -0.727141         0.995188         0.523679
 C        -1.829731        -0.010845         0.953845
 C        -2.753643         0.840609         0.079464
 C        -1.476139         1.063822        -0.883260
 O        -1.744775         2.327959        -1.553956
 C        -2.705091         3.114817        -0.719143
 C        -2.679801         2.304622         0.500272
 C        -1.289086         2.313039         1.137589
 H         1.231171         1.356255         0.432706
 H        -1.650094        -0.841369         0.375939
 H        -1.958206        -0.404417         1.956634
 H        -3.709689         0.472996        -0.296248
 H        -1.231659         0.313562        -1.722482
 H        -2.373944         4.082835        -0.677717
 H        -3.717703         3.048904        -1.132689
 H        -3.450767         2.536013         1.306080
 H        -0.609368         3.113907         0.924284
 H        -1.434648         2.313672         2.317187
