19
Iteration:   719
 O         0.551175         0.661548         0.639908
 C        -0.762899         0.940366         0.494362
 C        -1.833298         0.013230         1.017679
 C        -2.791918         0.822035        -0.016579
 C        -1.533456         1.016059        -0.856012
 O        -1.625800         2.323736        -1.537112
 C        -2.625390         3.103620        -0.786287
 C        -2.667077         2.297405         0.524317
 C        -1.197986         2.214241         1.103731
 H         1.013456         1.545683         0.691921
 H        -1.750321        -0.933708         0.486635
 H        -1.788137        -0.305640         2.095291
 H        -3.749596         0.399745        -0.405260
 H        -1.365248         0.244834        -1.683847
 H        -2.290240         4.176813        -0.658633
 H        -3.694237         3.158989        -1.192500
 H        -3.298458         2.698337         1.448996
 H        -0.540270         3.057718         0.896118
 H        -1.216077         2.123999         2.174080
