19
Iteration:  1934
 O         0.631921         0.590110         0.733601
 C        -0.666904         1.033863         0.491564
 C        -1.807833         0.080110         0.892762
 C        -2.771234         0.834298        -0.024045
 C        -1.610315         1.042757        -0.876504
 O        -1.683032         2.317573        -1.570169
 C        -2.650909         3.031908        -0.760120
 C        -2.721369         2.240283         0.627811
 C        -1.206991         2.297458         1.133634
 H         1.177748         0.793916        -0.054976
 H        -1.640546        -0.789285         0.326576
 H        -2.091934        -0.142295         1.977992
 H        -3.718599         0.400647        -0.451440
 H        -1.213307         0.298717        -1.576307
 H        -2.443721         4.137202        -0.523312
 H        -3.687334         3.049117        -1.136714
 H        -3.482985         2.515622         1.284870
 H        -0.647406         3.094056         0.804419
 H        -1.023894         2.209102         2.192837
