19
Iteration:  1867
 O         0.589902         0.717208         0.444845
 C        -0.798006         1.014057         0.481232
 C        -1.908089        -0.036338         0.979997
 C        -2.742112         0.800257         0.062420
 C        -1.553763         0.959443        -0.890583
 O        -1.593179         2.324127        -1.516118
 C        -2.552452         3.018446        -0.733280
 C        -2.663013         2.314509         0.597140
 C        -1.258365         2.284231         1.185862
 H         1.042178         1.335343         1.075968
 H        -1.850660        -1.021518         0.583684
 H        -2.180822         0.009087         2.076303
 H        -3.680440         0.452621        -0.470895
 H        -1.203352         0.167048        -1.562649
 H        -2.218643         4.109827        -0.725330
 H        -3.526146         3.039012        -1.310127
 H        -3.477968         2.574032         1.268239
 H        -0.717934         3.148644         1.020142
 H        -1.237938         2.086759         2.258496
