19
Iteration:  1958charge 0 multiplicity 1
 O         0.592446         0.644582         0.612257
 C        -0.751669         0.937949         0.469307
 C        -1.839104        -0.069556         1.002525
 C        -2.786716         0.759641         0.118244
 C        -1.458387         1.024629        -0.916806
 O        -1.623376         2.409405        -1.499459
 C        -2.676630         3.059004        -0.842918
 C        -2.656749         2.311888         0.565619
 C        -1.288283         2.307969         1.160995
 H         0.950447         0.988919        -0.186188
 H        -1.684529        -1.126989         0.668917
 H        -1.776862         0.052318         2.068155
 H        -3.669521         0.479254        -0.421336
 H        -1.153994         0.374572        -1.779018
 H        -2.511908         4.178730        -0.651188
 H        -3.774894         3.047828        -1.236006
 H        -3.360484         2.714885         1.277003
 H        -0.579011         3.031843         0.891892
 H        -1.269604         2.233713         2.159114
