19
Iteration:   697charge 0 multiplicity 1
 O         0.625099         0.533907         0.808370
 C        -0.715588         0.953604         0.541728
 C        -1.852433        -0.110041         0.809079
 C        -2.718513         0.816195         0.062979
 C        -1.561327         1.126029        -0.944083
 O        -1.715979         2.337261        -1.569754
 C        -2.653534         3.033857        -0.752418
 C        -2.670159         2.349859         0.595729
 C        -1.180640         2.401718         1.047966
 H         1.231066         1.252966         0.668759
 H        -1.776930        -1.118010         0.421721
 H        -2.198263        -0.279198         1.865463
 H        -3.745898         0.446489        -0.168810
 H        -1.476199         0.187975        -1.583749
 H        -2.439513         4.134334        -0.838696
 H        -3.626267         2.866928        -1.288037
 H        -3.411429         2.734692         1.463606
 H        -0.548521         3.128376         0.513694
 H        -1.142097         2.666224         2.075589
