19
Iteration:  1708
 O         0.657125         0.720528         0.344497
 C        -0.765746         1.016506         0.493719
 C        -1.974058        -0.031796         0.965696
 C        -2.841648         0.803017         0.064839
 C        -1.458682         1.014354        -0.762592
 O        -1.527817         2.281474        -1.499300
 C        -2.552114         3.014907        -0.781258
 C        -2.798507         2.264149         0.568780
 C        -1.233454         2.319316         1.196361
 H         1.132172         1.060721         1.140254
 H        -2.053032        -1.061400         0.601464
 H        -2.168342        -0.081741         2.048542
 H        -3.750402         0.575265        -0.334767
 H        -1.125685         0.249869        -1.474789
 H        -2.207430         3.973266        -0.495286
 H        -3.523196         3.163485        -1.465851
 H        -3.467381         2.493726         1.376986
 H        -0.780503         3.366964         1.103028
 H        -1.444034         2.238731         2.292364
