19
Iteration:  2071charge 0 multiplicity 1
 O         0.556400         0.591511         0.695363
 C        -0.773747         0.981947         0.478171
 C        -1.790365        -0.065589         0.951238
 C        -2.704703         0.821731         0.067867
 C        -1.510867         1.072787        -0.961950
 O        -1.698779         2.295496        -1.599688
 C        -2.652903         3.082355        -0.728070
 C        -2.738391         2.284181         0.631418
 C        -1.167001         2.374562         1.140029
 H         1.243737         1.141841         0.291559
 H        -1.458177        -1.065464         0.580665
 H        -1.959921        -0.091137         2.044820
 H        -3.729670         0.545512        -0.255034
 H        -1.181454         0.397046        -1.744522
 H        -2.420767         4.149417        -0.775730
 H        -3.659370         3.049222        -1.292435
 H        -3.753016         2.452697         1.165653
 H        -0.609751         3.223341         0.677953
 H        -0.957594         2.196210         2.111178
