19
Iteration:  3913
 O         0.625215         0.595716         0.634353
 C        -0.717944         0.963317         0.468579
 C        -1.812005         0.027489         0.967572
 C        -2.782671         0.852124         0.030140
 C        -1.571240         1.029173        -0.912126
 O        -1.624348         2.279240        -1.597886
 C        -2.635646         3.094025        -0.694123
 C        -2.691507         2.300598         0.579550
 C        -1.272943         2.279383         1.162525
 H         1.211381         1.321561         0.257300
 H        -1.834234        -1.043631         0.574806
 H        -2.145857         0.009722         2.011947
 H        -3.693428         0.388475        -0.380886
 H        -1.125691         0.207539        -1.525795
 H        -2.270625         4.126412        -0.478877
 H        -3.481208         3.139842        -1.354702
 H        -3.512064         2.499297         1.346518
 H        -0.689881         3.248520         0.708562
 H        -1.478674         2.362133         2.306058
