19
Iteration:  3959
 O         0.655591         0.662074         0.549373
 C        -0.762812         0.966822         0.534571
 C        -1.883256        -0.016552         0.904060
 C        -2.824850         0.866246         0.116146
 C        -1.506898         1.012810        -0.935328
 O        -1.619042         2.232871        -1.542752
 C        -2.534046         3.026251        -0.712945
 C        -2.723113         2.352777         0.553733
 C        -1.324920         2.318584         1.192082
 H         1.209722         1.464023         0.323207
 H        -1.721226        -0.986454         0.342253
 H        -1.913726        -0.268275         1.986769
 H        -3.914415         0.519370        -0.081373
 H        -1.257385         0.203639        -1.642992
 H        -2.050528         4.037946        -0.637550
 H        -3.519589         3.168978        -1.229689
 H        -3.643934         2.665830         1.098986
 H        -0.673967         3.352835         0.946882
 H        -1.196744         2.013152         2.233995
