19
Iteration:   652charge 0 multiplicity 1
 O         0.608019         0.517649         0.683269
 C        -0.740662         0.938403         0.506601
 C        -1.828258         0.050531         1.071887
 C        -2.741515         0.763931         0.030184
 C        -1.481526         1.081129        -0.928600
 O        -1.711884         2.387365        -1.623744
 C        -2.688374         3.071556        -0.766170
 C        -2.626054         2.310383         0.546792
 C        -1.267972         2.290565         1.116922
 H         1.198780         1.205983         0.351807
 H        -1.722327        -1.048790         0.867743
 H        -2.014098         0.020129         2.149153
 H        -3.477681         0.300183        -0.586619
 H        -1.109562         0.408696        -1.739726
 H        -2.355961         4.120884        -0.688552
 H        -3.677645         3.073051        -1.235386
 H        -3.475981         2.764802         1.270326
 H        -0.819864         3.258771         0.843888
 H        -1.209451         2.151046         2.158250
