19
Iteration:  2476
 O         0.632541         0.675058         0.530714
 C        -0.756805         1.024788         0.541227
 C        -1.799847        -0.027211         0.979835
 C        -2.793387         0.799982         0.038713
 C        -1.647972         1.016435        -0.858854
 O        -1.619471         2.304649        -1.621093
 C        -2.558254         2.994953        -0.789148
 C        -2.719552         2.305918         0.612566
 C        -1.260960         2.276489         1.257361
 H         1.142230         1.512464         0.327913
 H        -1.574880        -1.014701         0.627632
 H        -2.135960         0.014303         2.049250
 H        -3.636327         0.265915        -0.458467
 H        -1.309505         0.236392        -1.490815
 H        -2.153204         4.078181        -0.792418
 H        -3.525251         3.199263        -1.416455
 H        -3.440909         2.716642         1.311825
 H        -0.665514         3.187495         0.874439
 H        -1.285257         2.245256         2.305569
