19
Iteration:   913charge 0 multiplicity 1
 O         0.643266         0.858032         0.431456
 C        -0.768729         1.057408         0.523833
 C        -1.894039        -0.028325         0.903198
 C        -2.845705         0.806432         0.024180
 C        -1.581029         0.917080        -0.817382
 O        -1.595985         2.184276        -1.540129
 C        -2.437870         3.106926        -0.728605
 C        -2.723080         2.291206         0.595723
 C        -1.341628         2.261726         1.227392
 H         1.029567         0.363601         1.219645
 H        -1.705366        -1.029826         0.328693
 H        -2.012334        -0.125641         2.006473
 H        -3.769442         0.753447        -0.513722
 H        -1.367002         0.025707        -1.468446
 H        -1.778012         3.940903        -0.503100
 H        -3.146421         3.508283        -1.411484
 H        -3.572124         2.625813         1.298284
 H        -0.727084         3.236308         0.954337
 H        -1.420385         1.897489         2.354049
