19
Iteration:  2813
 O         0.626001         0.719929         0.693525
 C        -0.733662         0.941246         0.496796
 C        -1.908613        -0.062795         0.897242
 C        -2.781789         0.832982         0.104667
 C        -1.466097         1.056984        -0.893422
 O        -1.685230         2.333963        -1.528402
 C        -2.650649         3.039474        -0.791676
 C        -2.683252         2.279959         0.565772
 C        -1.192454         2.268641         1.108325
 H         1.033060         0.569768        -0.170521
 H        -1.663613        -1.052839         0.470310
 H        -2.014333        -0.059137         2.004001
 H        -3.785931         0.529907        -0.102270
 H        -1.202398         0.239317        -1.521452
 H        -2.340040         4.115241        -0.657734
 H        -3.647699         3.198363        -1.311269
 H        -3.402642         2.734036         1.169887
 H        -0.672904         3.158867         0.688551
 H        -1.173461         2.245555         2.216592
