19
Iteration:  2780charge 0 multiplicity 1
 O         0.567517         0.684167         0.539675
 C        -0.777609         1.012862         0.549463
 C        -1.827423         0.001391         0.958506
 C        -2.781197         0.814529         0.043659
 C        -1.498002         1.004544        -0.865647
 O        -1.639358         2.304078        -1.489504
 C        -2.572577         3.058410        -0.769332
 C        -2.675170         2.291297         0.501854
 C        -1.307615         2.268087         1.181019
 H         0.924429         0.828108        -0.312506
 H        -1.391861        -1.016838         0.804705
 H        -1.916427         0.038161         2.054674
 H        -3.724385         0.374817        -0.157817
 H        -1.208173         0.298057        -1.585685
 H        -2.146663         4.061325        -0.562949
 H        -3.519982         3.016836        -1.373867
 H        -3.374161         2.782455         1.093923
 H        -0.662113         3.144202         1.046100
 H        -1.375474         2.066369         2.271731
