19
Iteration:  4412
 O         0.565267         0.683603         0.595274
 C        -0.787890         0.987256         0.445775
 C        -1.853356        -0.030588         0.931052
 C        -2.784969         0.823348         0.068443
 C        -1.453720         1.039790        -0.902007
 O        -1.634899         2.188295        -1.530796
 C        -2.564955         3.115629        -0.730089
 C        -2.685657         2.314285         0.553394
 C        -1.302659         2.312294         1.166827
 H         1.184651         1.292830         0.214072
 H        -1.740967        -1.081857         0.538598
 H        -1.964129        -0.223872         2.034616
 H        -3.773997         0.646173        -0.353896
 H        -1.244723         0.159737        -1.615975
 H        -2.161636         4.089748        -0.223271
 H        -3.440540         3.249632        -1.314405
 H        -3.490769         2.651277         1.297214
 H        -0.579174         3.218226         0.975707
 H        -1.294699         2.117000         2.286542
