19
Iteration:  2605charge 0 multiplicity 1
 O         0.590372         0.744360         0.517552
 C        -0.820059         1.035816         0.506891
 C        -1.850917        -0.086959         1.020198
 C        -2.821812         0.741956         0.059581
 C        -1.633129         0.994849        -0.871279
 O        -1.540825         2.264453        -1.600639
 C        -2.612395         3.076417        -0.767104
 C        -2.633987         2.296014         0.542306
 C        -1.211335         2.308019         1.228182
 H         1.043674         1.588235         0.373039
 H        -1.738216        -1.198093         0.588972
 H        -2.054414         0.061277         2.169086
 H        -3.830689         0.434058        -0.319050
 H        -1.268310         0.220896        -1.491586
 H        -2.144924         4.082154        -0.438327
 H        -3.338353         3.225505        -1.524975
 H        -3.411096         2.544808         1.206767
 H        -0.713369         3.300682         1.091962
 H        -1.149551         2.020452         2.316668
