19
Iteration:  2367
 O         0.597954         0.595017         0.555277
 C        -0.753522         0.983482         0.442590
 C        -1.849786        -0.050152         1.001171
 C        -2.722053         0.844286         0.101546
 C        -1.557867         1.100262        -0.868981
 O        -1.588195         2.345621        -1.463404
 C        -2.704485         2.956276        -0.757685
 C        -2.652614         2.273361         0.514676
 C        -1.211515         2.351177         1.069013
 H         1.095330         1.403751         0.815856
 H        -1.476247        -0.959461         0.746149
 H        -2.348648        -0.089294         1.968875
 H        -3.666613         0.459246        -0.369456
 H        -1.514642         0.260238        -1.539629
 H        -2.757959         4.062213        -0.557662
 H        -3.588319         2.779912        -1.412030
 H        -3.393725         2.748784         1.241154
 H        -0.613882         3.313408         0.769581
 H        -1.279407         2.280175         2.111668
