19
Iteration:  3837
 O         0.596485         0.607055         0.632837
 C        -0.773106         1.019367         0.480152
 C        -1.820362         0.004616         0.921062
 C        -2.769835         0.801859         0.012768
 C        -1.500525         1.024738        -0.884587
 O        -1.653507         2.276553        -1.508508
 C        -2.643142         3.127182        -0.715751
 C        -2.622361         2.291261         0.530896
 C        -1.287608         2.277196         1.123774
 H         1.164280         1.306736         0.268959
 H        -1.620501        -1.074915         0.675653
 H        -2.027096        -0.104935         1.997996
 H        -3.784200         0.474139        -0.143126
 H        -1.360215         0.134625        -1.541569
 H        -2.098162         4.120631        -0.681393
 H        -3.669332         3.101249        -1.259567
 H        -3.376497         2.716788         1.273855
 H        -0.681279         3.214207         0.931631
 H        -1.446977         2.232722         2.142230
