19
Iteration:  2761charge 0 multiplicity 1
 O         0.607716         0.691823         0.497822
 C        -0.769701         0.960074         0.526437
 C        -1.862384        -0.069725         1.043758
 C        -2.728358         0.800019         0.087410
 C        -1.526635         1.057823        -0.842625
 O        -1.586824         2.286896        -1.614516
 C        -2.612875         3.125318        -0.802965
 C        -2.747809         2.291477         0.584917
 C        -1.265507         2.280315         1.241534
 H         1.042752         1.299824        -0.089100
 H        -1.812003        -1.091119         0.594975
 H        -2.255272        -0.277436         2.171781
 H        -3.622731         0.429934        -0.401014
 H        -1.158955         0.169226        -1.389059
 H        -1.942947         4.073324        -0.725562
 H        -3.570010         3.173886        -1.406942
 H        -3.679136         2.595907         1.145478
 H        -0.734233         3.228474         0.892546
 H        -1.256334         2.212035         2.286660
