19
Iteration:  4031
 O         0.622244         0.544424         0.703858
 C        -0.745241         0.932207         0.495074
 C        -1.760593        -0.009920         0.952877
 C        -2.790477         0.854182         0.026542
 C        -1.552336         1.040227        -0.901278
 O        -1.642880         2.310670        -1.538556
 C        -2.715541         3.106122        -0.783618
 C        -2.739345         2.338379         0.532560
 C        -1.165497         2.304696         1.155774
 H         1.144263         1.234127         0.231494
 H        -1.418648        -0.930341         0.427248
 H        -2.092761        -0.190650         1.962148
 H        -3.756001         0.572077        -0.326416
 H        -1.240079         0.234466        -1.613874
 H        -2.456334         4.171672        -0.739692
 H        -3.789144         3.015010        -1.299363
 H        -3.428310         2.800006         1.282810
 H        -0.652007         3.075014         0.687064
 H        -1.167800         2.358035         2.288287
