19
Iteration:  3877charge 0 multiplicity 1
 O         0.538418         0.567694         0.640246
 C        -0.746582         0.940189         0.579756
 C        -1.802970        -0.028508         0.936315
 C        -2.746764         0.787034         0.080215
 C        -1.566699         1.066448        -0.932598
 O        -1.581276         2.350663        -1.572862
 C        -2.755873         3.079046        -0.752281
 C        -2.585994         2.313055         0.537624
 C        -1.252941         2.313071         1.104305
 H         1.180862         1.284566         0.399536
 H        -1.700681        -0.992997         0.497954
 H        -2.014424        -0.049239         2.031817
 H        -3.660580         0.419718        -0.309189
 H        -1.092477         0.387261        -1.658933
 H        -2.483012         4.091254        -0.676423
 H        -3.717983         3.043504        -1.171470
 H        -3.240227         2.600883         1.346855
 H        -0.679039         3.238641         0.778907
 H        -1.230063         2.450305         2.316401
