19
Iteration:   149
 O         0.598257         0.757242         0.455652
 C        -0.764814         0.901577         0.535383
 C        -1.887943        -0.066055         0.981403
 C        -2.721868         0.804731         0.055080
 C        -1.534282         1.035420        -0.860265
 O        -1.659134         2.266636        -1.613503
 C        -2.487200         3.127555        -0.793645
 C        -2.705001         2.323933         0.547006
 C        -1.334046         2.253045         1.298632
 H         1.046679         1.062891         1.266601
 H        -1.783050        -1.172495         0.530151
 H        -2.035391        -0.046410         2.082633
 H        -3.709604         0.477133        -0.232108
 H        -1.223079         0.261761        -1.531150
 H        -1.878255         4.024363        -0.544907
 H        -3.502292         3.265804        -1.276488
 H        -3.637325         2.737183         1.012497
 H        -0.629466         3.075144         0.923414
 H        -1.269961         2.187533         2.394604
