19
Iteration:  3242charge 0 multiplicity 1
 O         0.566905         0.616412         0.608429
 C        -0.730544         0.981564         0.513686
 C        -1.746113        -0.120869         0.893985
 C        -2.719949         0.845725         0.033950
 C        -1.564521         1.119757        -0.833957
 O        -1.756059         2.304070        -1.564811
 C        -2.680833         3.093437        -0.839023
 C        -2.693425         2.350329         0.613115
 C        -1.154562         2.222459         1.224814
 H         1.139908         1.417793         0.383031
 H        -1.585045        -1.253016         0.574618
 H        -2.111165         0.066734         1.934231
 H        -3.580889         0.351102        -0.484169
 H        -1.240281         0.352147        -1.499267
 H        -2.111464         4.123524        -0.609202
 H        -3.670211         3.093037        -1.372416
 H        -3.462910         2.697747         1.261243
 H        -0.645369         3.165092         0.862503
 H        -1.048418         2.163044         2.247805
