19
Iteration:   701charge 0 multiplicity 1
 O         0.610458         0.564962         0.784691
 C        -0.753070         0.936484         0.522009
 C        -1.842155        -0.141197         0.839085
 C        -2.715543         0.841413         0.099679
 C        -1.551799         1.102437        -0.934236
 O        -1.714581         2.347866        -1.555685
 C        -2.676488         3.058465        -0.775832
 C        -2.670140         2.355180         0.578329
 C        -1.159612         2.360058         1.063019
 H         1.219675         1.348111         0.704903
 H        -1.683635        -1.126639         0.446087
 H        -2.207361        -0.205633         1.855696
 H        -3.774324         0.539999        -0.223791
 H        -1.331156         0.207531        -1.530202
 H        -2.361055         4.108032        -0.802846
 H        -3.528161         2.954148        -1.378179
 H        -3.432433         2.621246         1.205233
 H        -0.589455         3.064984         0.428746
 H        -1.037975         2.543392         2.206189
