19
Iteration:   289
 O         0.619013         0.879058         0.486930
 C        -0.780929         1.008553         0.492388
 C        -1.916054        -0.041370         0.922673
 C        -2.832552         0.844596         0.042672
 C        -1.559099         0.970828        -0.853159
 O        -1.705585         2.142187        -1.616571
 C        -2.362555         3.027041        -0.712225
 C        -2.696732         2.307661         0.541342
 C        -1.264948         2.222516         1.284040
 H         0.971167         1.243489         1.337411
 H        -1.930476        -0.983005         0.417351
 H        -2.036242        -0.052313         1.986438
 H        -3.792014         0.525017        -0.427510
 H        -1.255942         0.223438        -1.605337
 H        -1.686219         3.908474        -0.459873
 H        -3.361149         3.308136        -1.201304
 H        -3.411919         2.946820         1.160048
 H        -0.659159         3.190657         1.121340
 H        -1.317478         2.085166         2.395387
