19
Iteration:  1113
 O         0.535870         0.737717         0.613553
 C        -0.753076         0.946642         0.564575
 C        -1.843610        -0.028592         0.945422
 C        -2.709518         0.816344         0.018108
 C        -1.490700         1.009619        -0.873465
 O        -1.656131         2.314234        -1.590476
 C        -2.620550         3.123738        -0.791729
 C        -2.666943         2.295099         0.578766
 C        -1.248771         2.298073         1.178410
 H         0.817482        -0.170567         0.452389
 H        -1.714405        -0.989206         0.567400
 H        -2.202085        -0.072298         2.034343
 H        -3.631138         0.453636        -0.455226
 H        -1.104975         0.365959        -1.626582
 H        -2.220958         4.129242        -0.681133
 H        -3.604050         3.068793        -1.394819
 H        -3.496895         2.598687         1.191748
 H        -0.386037         3.035899         1.059156
 H        -1.351340         2.045298         2.316069
