19
Iteration:  3241charge 0 multiplicity 1
 O         0.566204         0.621192         0.610557
 C        -0.745041         0.994342         0.500656
 C        -1.747072        -0.129900         0.893349
 C        -2.722845         0.846286         0.041727
 C        -1.564082         1.119333        -0.842985
 O        -1.747664         2.300103        -1.569711
 C        -2.676744         3.097026        -0.837135
 C        -2.688619         2.346121         0.617877
 C        -1.153686         2.223331         1.234404
 H         1.120222         1.416812         0.382606
 H        -1.582030        -1.236544         0.609134
 H        -2.127570         0.065308         1.929228
 H        -3.588391         0.346296        -0.476003
 H        -1.233573         0.332614        -1.540255
 H        -2.117439         4.099059        -0.629340
 H        -3.685238         3.101328        -1.367602
 H        -3.463599         2.665970         1.288152
 H        -0.649671         3.144333         0.863204
 H        -1.013672         2.179820         2.267476
