19
Iteration:  1902
 O         0.585482         0.616177         0.667695
 C        -0.726136         0.946729         0.524305
 C        -1.785443        -0.064735         0.958997
 C        -2.636322         0.833265         0.077421
 C        -1.589903         1.011463        -0.908668
 O        -1.732280         2.336550        -1.636622
 C        -2.602907         3.126143        -0.774475
 C        -2.696330         2.329658         0.595401
 C        -1.281659         2.289044         1.140890
 H         1.132304         1.450910         0.500932
 H        -1.821370        -0.989005         0.435859
 H        -2.013444        -0.351193         2.017962
 H        -3.554492         0.487028        -0.448175
 H        -1.243339         0.324113        -1.681411
 H        -2.140064         4.165590        -0.482233
 H        -3.732221         3.159633        -1.152517
 H        -3.485280         2.547977         1.236969
 H        -0.609858         2.996933         0.846216
 H        -1.177788         2.121643         2.136900
