19
Iteration:   522charge 0 multiplicity 1
 O         0.612902         0.477050         0.816835
 C        -0.688023         0.917246         0.466859
 C        -1.846207         0.067018         0.896076
 C        -2.692250         0.914717         0.059930
 C        -1.525596         1.089171        -0.956999
 O        -1.677276         2.352631        -1.522450
 C        -2.807509         3.012155        -0.792744
 C        -2.628132         2.264148         0.562876
 C        -1.232343         2.354551         1.052644
 H         1.256055         1.134038         0.550455
 H        -1.634570        -0.935761         0.440624
 H        -1.852353         0.130458         1.963433
 H        -3.623381         0.451270        -0.328445
 H        -1.424210         0.313286        -1.742381
 H        -2.523759         4.116918        -0.631315
 H        -3.780682         2.822020        -1.337854
 H        -3.442021         2.528092         1.365772
 H        -0.508650         3.161446         0.660287
 H        -1.212515         2.388145         2.165712
