19
Iteration:  3397
 O         0.574568         0.650824         0.613345
 C        -0.728776         1.001778         0.429940
 C        -1.810292        -0.101735         0.956922
 C        -2.733353         0.817596        -0.012004
 C        -1.554924         1.030211        -0.881655
 O        -1.700145         2.311397        -1.517617
 C        -2.623007         3.016548        -0.713137
 C        -2.667413         2.332682         0.606983
 C        -1.209197         2.332696         1.153885
 H         1.180638         1.371669         0.563149
 H        -1.694735        -1.163727         0.553990
 H        -2.126057        -0.370674         1.990088
 H        -3.701482         0.655758        -0.449393
 H        -1.452544         0.354185        -1.675612
 H        -2.251206         4.139820        -0.630461
 H        -3.664132         2.994147        -1.187032
 H        -3.492657         2.685678         1.214440
 H        -0.730146         3.262488         0.719082
 H        -0.951641         2.331572         2.155068
