19
Iteration:  4181charge 0 multiplicity 1
 O         0.593849         0.532259         0.686242
 C        -0.785282         1.024574         0.469148
 C        -1.786222         0.042062         0.943192
 C        -2.743963         0.812248         0.043339
 C        -1.525256         1.060989        -0.887351
 O        -1.607789         2.294999        -1.540415
 C        -2.657992         3.133145        -0.762188
 C        -2.698884         2.292819         0.606282
 C        -1.255772         2.292656         1.071174
 H         1.112353         1.269346         0.260080
 H        -1.654291        -0.944600         0.472966
 H        -2.199100        -0.167662         1.955688
 H        -3.663580         0.319771        -0.205004
 H        -1.278185         0.222502        -1.613130
 H        -2.567083         4.255684        -0.649144
 H        -3.700021         2.843806        -1.235490
 H        -3.511674         2.481909         1.285648
 H        -0.722911         3.280603         0.831560
 H        -0.965221         2.116468         2.038149
