19
Iteration:    17charge 0 multiplicity 1
 O         0.770275         0.580103         0.741651
 C        -0.681783         0.907800         0.396554
 C        -1.878603        -0.014983         0.888819
 C        -2.789998         0.889991         0.031061
 C        -1.604565         1.068346        -0.943182
 O        -1.621891         2.411303        -1.556306
 C        -2.682153         3.086601        -0.728094
 C        -2.707914         2.293898         0.566351
 C        -1.267156         2.236267         1.091884
 H         0.785294         0.654417         1.716106
 H        -1.853191        -1.090208         0.576979
 H        -2.142733         0.160333         1.978121
 H        -3.749413         0.452664        -0.347870
 H        -1.546356         0.245561        -1.712793
 H        -2.406545         4.173067        -0.682639
 H        -3.702246         2.768288        -1.198687
 H        -3.494764         2.611453         1.287826
 H        -0.624248         3.123531         0.846342
 H        -1.099845         2.244045         2.197985
