19
Iteration:  3773charge 0 multiplicity 1
 O         0.595936         0.677452         0.592569
 C        -0.747014         0.936462         0.452191
 C        -1.834388        -0.062408         0.921597
 C        -2.819861         0.840201         0.094518
 C        -1.509919         1.066926        -0.897072
 O        -1.632834         2.289767        -1.550737
 C        -2.581097         3.058155        -0.833046
 C        -2.678599         2.336635         0.582000
 C        -1.264245         2.274911         1.281107
 H         1.110902         1.462750         0.241404
 H        -1.688930        -1.154085         0.609387
 H        -2.036918        -0.039018         2.002014
 H        -3.847244         0.405095        -0.128998
 H        -1.446737         0.245432        -1.656018
 H        -2.161323         4.096619        -0.726223
 H        -3.535028         2.986904        -1.426689
 H        -3.495776         2.630596         1.279082
 H        -0.653026         3.042630         0.837345
 H        -1.248651         2.253166         2.358285
