19
Iteration:  1730charge 0 multiplicity 1
 O         0.632696         0.716232         0.466640
 C        -0.775779         0.902252         0.520019
 C        -1.834459        -0.028847         0.981888
 C        -2.753080         0.823582         0.032164
 C        -1.549977         1.007949        -0.877332
 O        -1.611949         2.333588        -1.481118
 C        -2.624175         3.071860        -0.814720
 C        -2.659551         2.338563         0.551877
 C        -1.307228         2.253345         1.198951
 H         1.197404         0.877381         1.228306
 H        -1.786305        -1.120447         0.698279
 H        -2.176670        -0.035759         2.018982
 H        -3.645879         0.458878        -0.340953
 H        -1.468308         0.185069        -1.612208
 H        -2.334727         4.089667        -0.718531
 H        -3.648971         3.059789        -1.372576
 H        -3.472580         2.665789         1.217997
 H        -0.550015         3.143131         0.930085
 H        -1.208005         2.274686         2.334692
