19
Iteration:  2350
 O         0.581437         0.660063         0.579862
 C        -0.762717         0.981172         0.514023
 C        -1.801324        -0.020175         0.956188
 C        -2.796340         0.782915         0.016404
 C        -1.535107         1.011717        -0.857461
 O        -1.649772         2.305055        -1.506463
 C        -2.658049         3.071012        -0.790479
 C        -2.712932         2.326488         0.610772
 C        -1.192805         2.286534         1.105467
 H         1.136830         1.454320         0.796593
 H        -1.707788        -1.101415         0.495885
 H        -1.812369        -0.033971         2.068977
 H        -3.740662         0.435248        -0.354429
 H        -1.119587         0.265726        -1.594421
 H        -2.252086         4.055776        -0.851508
 H        -3.665713         2.992785        -1.272552
 H        -3.503940         2.598476         1.309814
 H        -0.627570         3.043087         0.631942
 H        -0.923070         2.387084         2.210882
