19
Iteration:  4946charge 0 multiplicity 1
 O         0.560094         0.549192         0.716472
 C        -0.782362         0.970075         0.497000
 C        -1.859261        -0.002873         0.901721
 C        -2.748531         0.789192         0.120928
 C        -1.501448         1.133056        -0.929540
 O        -1.690155         2.295943        -1.601819
 C        -2.624031         3.184765        -0.753168
 C        -2.697718         2.258907         0.555248
 C        -1.163302         2.295623         1.082314
 H         1.193597         1.293614         0.520443
 H        -1.495656        -1.013300         0.368546
 H        -1.970099        -0.101839         2.044229
 H        -3.789849         0.519969        -0.107655
 H        -1.185737         0.208031        -1.488595
 H        -2.114809         4.099205        -0.504709
 H        -3.633546         3.050961        -1.253670
 H        -3.592424         2.491563         1.166431
 H        -0.589611         3.167359         0.756554
 H        -1.042502         2.032990         2.242941
