19
Iteration:  1166charge 0 multiplicity 1
 O         0.606647         0.649674         0.741454
 C        -0.757464         0.995587         0.500405
 C        -1.849976        -0.045396         0.973813
 C        -2.748809         0.833279         0.034894
 C        -1.550421         1.085807        -0.907973
 O        -1.597114         2.393324        -1.438391
 C        -2.696544         3.045650        -0.804265
 C        -2.657687         2.281693         0.509652
 C        -1.219130         2.229126         1.047218
 H         0.805644         0.076263        -0.019116
 H        -1.872880        -1.029005         0.482967
 H        -2.002852        -0.013514         2.067128
 H        -3.666575         0.513157        -0.451555
 H        -1.172783         0.437075        -1.681317
 H        -2.481782         4.129814        -0.753277
 H        -3.755754         2.935766        -1.317253
 H        -3.507023         2.659814         1.127990
 H        -0.481810         2.972018         0.521652
 H        -1.068825         2.345353         2.215581
