19
Iteration:   748charge 0 multiplicity 1
 O         0.609275         0.686412         0.392088
 C        -0.756858         1.011739         0.505448
 C        -1.908805        -0.021764         1.065727
 C        -2.820235         0.822339         0.005312
 C        -1.511366         0.998219        -0.838934
 O        -1.544986         2.269242        -1.560095
 C        -2.453856         3.063551        -0.804174
 C        -2.794071         2.232719         0.552497
 C        -1.350569         2.338542         1.362107
 H         1.137125         1.505890         0.264726
 H        -1.841319        -1.116089         0.532374
 H        -1.932297        -0.245957         2.131106
 H        -3.783837         0.553454        -0.328789
 H        -1.294639         0.166978        -1.492146
 H        -1.884763         3.933735        -0.515526
 H        -3.369313         3.364179        -1.437210
 H        -3.637023         2.602849         1.160773
 H        -0.918668         3.319877         1.021104
 H        -1.170010         2.094732         2.444468
