19
Iteration:  2965
 O         0.568145         0.608373         0.645008
 C        -0.697768         0.973290         0.491923
 C        -1.802063        -0.034431         0.906360
 C        -2.700472         0.830264         0.014602
 C        -1.551334         1.075095        -0.948309
 O        -1.697868         2.317689        -1.472417
 C        -2.644137         3.054281        -0.726419
 C        -2.720121         2.306121         0.584085
 C        -1.225061         2.324550         1.150254
 H         1.130371         1.077163         0.054020
 H        -1.697983        -1.013071         0.476495
 H        -2.071694        -0.133972         1.974968
 H        -3.593789         0.401736        -0.413400
 H        -1.386395         0.296630        -1.805259
 H        -2.192002         4.068464        -0.637159
 H        -3.628356         3.146889        -1.151386
 H        -3.594165         2.417556         1.258365
 H        -0.560510         3.175160         0.842378
 H        -1.056840         2.213940         2.249738
