19
Iteration:  4617charge 0 multiplicity 1
 O         0.604059         0.538461         0.613744
 C        -0.765153         0.979689         0.524443
 C        -1.881014        -0.007797         0.971256
 C        -2.717375         0.784965         0.003056
 C        -1.581460         1.062548        -0.875291
 O        -1.621551         2.388338        -1.495206
 C        -2.622990         3.025392        -0.798170
 C        -2.662277         2.323781         0.533435
 C        -1.224698         2.330239         1.127635
 H         1.206956         1.175586         0.210940
 H        -1.727624        -1.044145         0.628061
 H        -2.185806        -0.116862         2.052087
 H        -3.794955         0.499785        -0.161172
 H        -1.103803         0.334690        -1.599427
 H        -2.432984         4.081799        -0.641738
 H        -3.676955         2.940161        -1.375565
 H        -3.393292         2.637680         1.237872
 H        -0.550263         3.128868         0.890752
 H        -1.415578         2.362940         2.299719
