19
Iteration:  1524charge 0 multiplicity 1
 O         0.668533         0.686476         0.541787
 C        -0.780260         0.932503         0.527570
 C        -1.793881        -0.051619         0.957749
 C        -2.753074         0.819055         0.053131
 C        -1.555753         1.051205        -0.894693
 O        -1.687589         2.229179        -1.621896
 C        -2.494035         3.140332        -0.715745
 C        -2.745424         2.364277         0.523672
 C        -1.348655         2.259545         1.185013
 H         0.908364         1.185223         1.322173
 H        -1.797208        -1.142132         0.700694
 H        -2.078859        -0.053031         1.975267
 H        -3.691916         0.492146        -0.314306
 H        -1.205696         0.186305        -1.449856
 H        -1.976401         4.119130        -0.659301
 H        -3.348194         3.268958        -1.274509
 H        -3.504103         2.728413         1.252302
 H        -0.735232         3.164162         1.033395
 H        -1.428213         2.031834         2.317459
