19
Iteration:    62charge 0 multiplicity 1
 O         0.629828         0.498289         0.605062
 C        -0.737965         1.027483         0.573005
 C        -1.894566        -0.038650         0.910708
 C        -2.761503         0.823675        -0.050644
 C        -1.446026         1.112636        -0.904192
 O        -1.680594         2.318157        -1.612369
 C        -2.666829         3.034035        -0.705818
 C        -2.698422         2.287179         0.674065
 C        -1.225641         2.397467         1.121368
 H         0.933087         0.554327         1.519535
 H        -1.579019        -0.981050         0.297419
 H        -2.095694        -0.232979         1.967465
 H        -3.693986         0.650406        -0.584033
 H        -1.116436         0.319456        -1.555224
 H        -2.208413         4.031047        -0.534694
 H        -3.643269         3.029959        -1.380434
 H        -3.505943         2.632239         1.318443
 H        -0.804410         3.391026         0.718233
 H        -1.118226         2.629808         2.197935
