19
Iteration:  4131charge 0 multiplicity 1
 O         0.594549         0.649400         0.592317
 C        -0.734866         1.042783         0.479470
 C        -1.917420        -0.096836         0.967289
 C        -2.763715         0.841532         0.064347
 C        -1.513847         0.983458        -0.887712
 O        -1.630896         2.280453        -1.533779
 C        -2.618268         3.029056        -0.773022
 C        -2.633551         2.352369         0.547055
 C        -1.245693         2.342260         1.164911
 H         1.215732         1.264587         0.225446
 H        -1.727646        -1.111254         0.529433
 H        -1.860978        -0.136486         2.055613
 H        -3.729493         0.561272        -0.437260
 H        -1.400422         0.213416        -1.687151
 H        -2.298328         4.032596        -0.413296
 H        -3.650124         3.240295        -1.234627
 H        -3.530688         2.640301         1.239600
 H        -0.664089         3.247739         0.992030
 H        -1.457951         2.049546         2.318826
