19
Iteration:  1508
 O         0.577551         0.664672         0.618791
 C        -0.729376         1.045771         0.515844
 C        -1.891880        -0.035609         0.988924
 C        -2.773281         0.763061         0.017835
 C        -1.554871         1.039982        -0.901268
 O        -1.728337         2.315660        -1.633314
 C        -2.532036         3.147348        -0.857927
 C        -2.633678         2.233755         0.562376
 C        -1.211867         2.240442         1.266287
 H         1.043350         1.198088         1.249280
 H        -1.577086        -0.969485         0.556299
 H        -2.025790        -0.004353         2.181473
 H        -3.741267         0.322605        -0.417358
 H        -1.369353         0.308060        -1.715788
 H        -1.910983         3.984354        -0.553018
 H        -3.624771         3.228966        -1.271203
 H        -3.499227         2.561606         1.122841
 H        -0.623892         3.103383         0.917196
 H        -1.154453         2.180943         2.324317
