19
Iteration:  3883charge 0 multiplicity 1
 O         0.537844         0.572864         0.647589
 C        -0.764757         0.956226         0.503245
 C        -1.802214        -0.015998         0.954338
 C        -2.755075         0.779745         0.079759
 C        -1.536702         1.050887        -0.946480
 O        -1.650897         2.351341        -1.513864
 C        -2.680108         3.054382        -0.748090
 C        -2.654938         2.343460         0.523794
 C        -1.179656         2.342623         1.120632
 H         1.230760         1.164492         0.420772
 H        -1.704939        -1.055496         0.534424
 H        -2.086186        -0.227802         1.988981
 H        -3.721706         0.300266        -0.332631
 H        -0.910343         0.428903        -1.604936
 H        -2.370142         4.134241        -0.547291
 H        -3.632584         2.921814        -1.391713
 H        -3.451323         2.557798         1.269111
 H        -0.625462         3.230608         0.814902
 H        -1.256894         2.437808         2.138902
