19
Iteration:  4945
 O         0.563295         0.546069         0.715203
 C        -0.786754         0.984168         0.502757
 C        -1.859996        -0.005256         0.901319
 C        -2.749621         0.788122         0.111832
 C        -1.503926         1.129065        -0.922831
 O        -1.689061         2.293996        -1.602387
 C        -2.626387         3.187540        -0.748360
 C        -2.691764         2.257185         0.555230
 C        -1.168905         2.289907         1.076245
 H         1.198629         1.275204         0.525452
 H        -1.500356        -1.005756         0.393951
 H        -1.929887        -0.110095         2.039621
 H        -3.807053         0.526334        -0.094663
 H        -1.183524         0.215440        -1.500127
 H        -2.112474         4.119161        -0.517815
 H        -3.617342         3.047267        -1.247046
 H        -3.570694         2.495059         1.154758
 H        -0.597435         3.202580         0.784690
 H        -1.041198         2.040181         2.214716
