19
Iteration:  1798
 O         0.614487         0.682741         0.564222
 C        -0.711187         0.958902         0.529514
 C        -1.861473        -0.005064         0.975196
 C        -2.756590         0.778410         0.046304
 C        -1.476198         1.046767        -0.833342
 O        -1.740166         2.398624        -1.636351
 C        -2.638992         3.061974        -0.809060
 C        -2.665429         2.298466         0.583865
 C        -1.208808         2.234270         1.160822
 H         0.647872         0.222131         1.405556
 H        -1.624049        -1.091836         0.648274
 H        -2.011873         0.008690         2.033724
 H        -3.647730         0.243364        -0.307159
 H        -1.255184         0.364535        -1.659597
 H        -2.304903         4.084929        -0.774260
 H        -3.656560         3.089478        -1.269422
 H        -3.386505         2.815951         1.326673
 H        -0.608233         3.080616         0.862536
 H        -1.133893         2.219748         2.312519
