19
Iteration:  1739
 O         0.552696         0.702850         0.511764
 C        -0.768504         0.941447         0.490621
 C        -1.818326        -0.088770         0.971995
 C        -2.721670         0.801592         0.067839
 C        -1.535772         0.995346        -0.898037
 O        -1.616676         2.349670        -1.535882
 C        -2.645355         3.063828        -0.793683
 C        -2.649983         2.338330         0.573997
 C        -1.236846         2.300667         1.165246
 H         0.832337         0.866101         1.437340
 H        -1.829444        -1.099905         0.608371
 H        -1.967181         0.027308         2.080881
 H        -3.718419         0.555856        -0.215978
 H        -1.321896         0.288500        -1.726066
 H        -2.298094         4.071595        -0.659175
 H        -3.561256         3.059082        -1.273338
 H        -3.335954         2.555022         1.336257
 H        -0.574072         3.281007         0.884192
 H        -1.497974         2.144553         2.241762
