19
Iteration:  3420
 O         0.602143         0.570564         0.619883
 C        -0.728760         0.921921         0.525302
 C        -1.821895         0.017711         0.920344
 C        -2.738716         0.765026         0.161109
 C        -1.586781         1.125314        -0.893033
 O        -1.606276         2.393827        -1.568035
 C        -2.780335         3.057233        -0.810257
 C        -2.667388         2.272905         0.528221
 C        -1.164410         2.260124         1.139649
 H         0.920741         1.535514         0.527612
 H        -1.647059        -0.979067         0.498646
 H        -1.973050        -0.323976         1.980175
 H        -3.710126         0.394911        -0.001617
 H        -1.240092         0.451343        -1.686145
 H        -2.518550         4.206099        -0.585247
 H        -3.719063         2.957372        -1.461244
 H        -3.343735         2.713761         1.313494
 H        -0.496483         3.097849         0.810548
 H        -1.161935         2.286384         2.191385
