19
Iteration:   356charge 0 multiplicity 1
 O         0.542081         0.451692         0.575457
 C        -0.722188         1.024639         0.616356
 C        -1.885011         0.047295         0.993576
 C        -2.741495         0.841582        -0.024117
 C        -1.498705         1.072470        -0.911022
 O        -1.566008         2.369826        -1.513803
 C        -2.798389         2.953749        -0.779157
 C        -2.681453         2.234094         0.530357
 C        -1.132332         2.488590         1.140009
 H         1.323839         0.986026         0.788419
 H        -1.661858        -1.034577         0.630614
 H        -2.184147         0.007414         1.977076
 H        -3.595572         0.406860        -0.445122
 H        -1.222010         0.235524        -1.449342
 H        -2.481083         4.063278        -0.541450
 H        -3.721617         2.671931        -1.438828
 H        -3.567930         2.451559         1.234545
 H        -0.659079         3.401377         0.519371
 H        -1.147801         2.532763         2.220207
