19
Iteration:  3093charge 0 multiplicity 1
 O         0.632459         0.589740         0.584988
 C        -0.723930         0.968969         0.461526
 C        -1.815477        -0.062529         0.925190
 C        -2.735538         0.906614         0.063701
 C        -1.549988         1.105309        -0.906720
 O        -1.720752         2.309477        -1.555807
 C        -2.591367         3.029700        -0.718577
 C        -2.641839         2.219298         0.577964
 C        -1.286833         2.344039         1.157771
 H         1.129867         1.432366         0.813900
 H        -1.837547        -1.105848         0.504256
 H        -2.011432        -0.096811         1.969706
 H        -3.715319         0.662786        -0.335912
 H        -1.323825         0.295076        -1.607355
 H        -2.298670         4.056255        -0.701892
 H        -3.689593         2.954406        -1.137666
 H        -3.393266         2.618512         1.312838
 H        -0.767616         3.302274         0.967651
 H        -1.353762         2.169361         2.286747
