19
Iteration:  1561
 O         0.567809         0.777317         0.411118
 C        -0.854725         0.983043         0.534616
 C        -1.857562        -0.123613         0.985945
 C        -2.804275         0.839993        -0.004193
 C        -1.533441         1.024924        -0.841210
 O        -1.488840         2.256502        -1.556819
 C        -2.543031         3.037341        -0.777474
 C        -2.672184         2.335449         0.616066
 C        -1.302036         2.260999         1.251182
 H         0.984076         0.968298         1.243988
 H        -1.594536        -1.078870         0.668278
 H        -2.290727         0.056010         1.957875
 H        -3.858782         0.393433        -0.210395
 H        -1.233444         0.290393        -1.591552
 H        -2.347044         4.160876        -0.660820
 H        -3.623297         3.016306        -1.255645
 H        -3.505614         2.827257         1.148933
 H        -0.473677         2.944516         0.804983
 H        -1.324406         2.399885         2.310800
