19
Iteration:   134charge 0 multiplicity 1
 O         0.626249         0.855480         0.355910
 C        -0.826163         1.040275         0.566332
 C        -1.903593        -0.186549         0.971298
 C        -2.876036         0.854780        -0.009831
 C        -1.553290         0.975934        -0.785515
 O        -1.580832         2.164321        -1.482576
 C        -2.424219         3.084227        -0.743258
 C        -2.697794         2.355770         0.554720
 C        -1.282980         2.267666         1.196729
 H         1.056080         1.196745         1.136671
 H        -1.623506        -1.058713         0.536174
 H        -2.382263        -0.325143         1.956945
 H        -3.792219         0.576853        -0.655684
 H        -1.242604         0.112908        -1.495226
 H        -1.917989         4.064657        -0.614143
 H        -3.252786         3.269867        -1.291547
 H        -3.454042         2.689558         1.322607
 H        -0.734349         3.141941         1.115753
 H        -1.429067         2.127183         2.275008
