19
Iteration:  2011
 O         0.602279         0.701376         0.512634
 C        -0.787583         1.018253         0.507418
 C        -1.828520        -0.031645         0.969498
 C        -2.779080         0.776280         0.094588
 C        -1.566182         1.055998        -0.885346
 O        -1.634247         2.263694        -1.569007
 C        -2.558279         3.100737        -0.767636
 C        -2.707115         2.275675         0.549402
 C        -1.250555         2.231266         1.207674
 H         1.062279         1.527151         0.614470
 H        -1.517235        -1.001704         0.584228
 H        -2.071353        -0.041201         2.059445
 H        -3.747411         0.396303        -0.251738
 H        -1.339526         0.252460        -1.623547
 H        -2.127539         4.156523        -0.601504
 H        -3.468914         3.123255        -1.251817
 H        -3.526886         2.654738         1.120234
 H        -0.626475         3.100527         1.048580
 H        -1.215180         2.085925         2.364648
