19
Iteration:  2763charge 0 multiplicity 1
 O         0.592008         0.693901         0.500684
 C        -0.777470         0.965128         0.509991
 C        -1.854016        -0.063927         1.052128
 C        -2.729631         0.781451         0.104273
 C        -1.513612         1.082343        -0.838224
 O        -1.595336         2.281563        -1.595546
 C        -2.608977         3.124578        -0.816484
 C        -2.735973         2.288112         0.563717
 C        -1.253353         2.276585         1.239741
 H         1.011663         1.248984        -0.140005
 H        -1.913237        -1.031406         0.559084
 H        -2.225446        -0.257092         2.146811
 H        -3.680440         0.432694        -0.397563
 H        -1.037064         0.163834        -1.450105
 H        -1.983124         4.058849        -0.723963
 H        -3.525593         3.205891        -1.404898
 H        -3.726134         2.533901         1.187823
 H        -0.696274         3.206834         0.915083
 H        -1.308207         2.196348         2.318882
