19
Iteration:  4083charge 0 multiplicity 1
 O         0.605172         0.655140         0.556544
 C        -0.725995         0.915788         0.499788
 C        -1.875156        -0.030343         0.968276
 C        -2.731836         0.808490         0.054764
 C        -1.564006         1.054772        -0.869990
 O        -1.680132         2.272833        -1.517139
 C        -2.531486         3.078637        -0.768486
 C        -2.682291         2.330278         0.544160
 C        -1.256826         2.290967         1.172788
 H         1.122179         1.509641         0.484832
 H        -1.782013        -1.042318         0.628244
 H        -2.297267         0.049637         1.988981
 H        -3.686201         0.421645        -0.241152
 H        -1.205386         0.330013        -1.619170
 H        -2.101152         4.059839        -0.778765
 H        -3.499851         3.176851        -1.161484
 H        -3.570743         2.526434         1.126030
 H        -0.775369         3.301737         0.780780
 H        -1.407422         2.246882         2.219729
