19
Iteration:  2533charge 0 multiplicity 1
 O         0.599244         0.606076         0.710740
 C        -0.747445         0.995526         0.453246
 C        -1.858311        -0.022977         0.964987
 C        -2.730942         0.832090         0.086710
 C        -1.497685         1.056714        -0.933910
 O        -1.662406         2.324567        -1.532189
 C        -2.761473         3.025652        -0.743914
 C        -2.670319         2.284402         0.522041
 C        -1.154445         2.323693         1.086220
 H         1.300572         1.152812         0.381489
 H        -1.766939        -0.950692         0.544862
 H        -2.076132        -0.112798         2.006643
 H        -3.702224         0.512396        -0.181439
 H        -1.152958         0.357444        -1.729067
 H        -2.370853         4.035739        -0.727316
 H        -3.789878         2.874378        -1.303313
 H        -3.407394         2.620796         1.295679
 H        -0.518573         3.193326         0.776216
 H        -1.274275         2.300368         2.132675
