19
Iteration:  3100
 O         0.609543         0.587225         0.608807
 C        -0.727794         0.969226         0.466752
 C        -1.870584        -0.016989         0.867056
 C        -2.703512         0.849676         0.046836
 C        -1.518625         1.068276        -0.914880
 O        -1.702674         2.274310        -1.571373
 C        -2.655634         3.009297        -0.632317
 C        -2.630368         2.326548         0.593686
 C        -1.283534         2.351376         1.105149
 H         1.191230         1.388014         0.784389
 H        -1.586251        -1.068043         0.475306
 H        -1.985611        -0.147518         1.990784
 H        -3.714819         0.518146        -0.281852
 H        -1.359552         0.376587        -1.696150
 H        -2.232796         4.060604        -0.336764
 H        -3.551913         2.937675        -1.131931
 H        -3.318190         2.555449         1.337723
 H        -0.770867         3.423623         0.970957
 H        -1.318452         2.293715         2.169274
