19
Iteration:  1060
 O         0.533364         0.894733         0.594364
 C        -0.805894         0.988345         0.484003
 C        -1.865336        -0.160838         0.966261
 C        -2.794051         0.799112         0.053235
 C        -1.549510         1.060119        -0.893993
 O        -1.649235         2.207185        -1.591001
 C        -2.401971         3.136261        -0.744131
 C        -2.630948         2.312872         0.564108
 C        -1.336911         2.216217         1.237690
 H         0.894806         0.153380         0.097110
 H        -1.533170        -1.143002         0.667663
 H        -1.974293        -0.232060         2.153562
 H        -3.788323         0.563336        -0.390001
 H        -1.373485         0.337623        -1.686648
 H        -1.898258         4.095033        -0.657413
 H        -3.282602         3.328127        -1.251193
 H        -3.473697         2.813483         0.980703
 H        -0.636722         2.992210         1.002613
 H        -1.285200         2.061096         2.298772
