19
Iteration:  2167charge 0 multiplicity 1
 O         0.673038         0.685570         0.695455
 C        -0.749331         0.969229         0.419861
 C        -1.796186         0.002704         0.950037
 C        -2.761492         0.838263         0.034525
 C        -1.547202         1.045749        -0.873810
 O        -1.807421         2.212211        -1.646735
 C        -2.506049         3.063169        -0.695239
 C        -2.665149         2.327822         0.570903
 C        -1.312066         2.260250         1.150186
 H         1.256622         1.379341         0.288493
 H        -1.582309        -1.054550         0.567691
 H        -2.035662         0.002127         1.980199
 H        -3.819078         0.684519        -0.184011
 H        -1.355541         0.219668        -1.572290
 H        -2.010321         4.117389        -0.648291
 H        -3.436844         3.219067        -1.150105
 H        -3.450585         2.580357         1.318981
 H        -0.766586         3.226928         0.962434
 H        -1.418600         1.986540         2.251358
