19
Iteration:  4265charge 0 multiplicity 1
 O         0.606986         0.663143         0.563319
 C        -0.844379         0.981726         0.529107
 C        -1.748933        -0.054618         0.965258
 C        -2.809444         0.805382         0.047031
 C        -1.564263         1.012155        -0.874203
 O        -1.634919         2.278717        -1.552284
 C        -2.576344         3.122854        -0.813406
 C        -2.683588         2.334308         0.555417
 C        -1.262702         2.244297         1.221454
 H         1.077041         1.478664         0.301172
 H        -1.818235        -1.000909         0.496399
 H        -2.120875        -0.044656         1.990878
 H        -3.713310         0.311919        -0.290897
 H        -1.137188         0.336193        -1.557887
 H        -2.111992         4.023894        -0.518691
 H        -3.389657         3.401459        -1.340898
 H        -3.356550         2.725090         1.241015
 H        -0.664920         2.993390         0.793854
 H        -1.259589         2.164521         2.413584
