19
Iteration:  3307charge 0 multiplicity 1
 O         0.630973         0.669932         0.564450
 C        -0.705472         0.920222         0.488175
 C        -1.879405        -0.102230         0.972003
 C        -2.709854         0.777584         0.070919
 C        -1.523435         1.019753        -0.902378
 O        -1.629782         2.344476        -1.490891
 C        -2.744081         3.136375        -0.756607
 C        -2.684769         2.301959         0.573059
 C        -1.249117         2.308918         1.114292
 H         1.123406         1.374690         0.125493
 H        -1.848000        -1.196928         0.589292
 H        -2.106433        -0.219686         2.043882
 H        -3.802733         0.606258        -0.090550
 H        -1.060034         0.346510        -1.609551
 H        -2.263823         4.164236        -0.585589
 H        -3.691279         3.072230        -1.372134
 H        -3.402223         2.579068         1.301264
 H        -0.637263         3.217820         0.838110
 H        -1.191941         2.289042         2.144210
