19
Iteration:  4594
 O         0.562424         0.662861         0.617536
 C        -0.806482         0.948254         0.454020
 C        -1.872927        -0.035332         0.991968
 C        -2.770611         0.878615         0.031321
 C        -1.502243         1.006579        -0.862661
 O        -1.565455         2.324504        -1.529380
 C        -2.604415         3.113840        -0.756642
 C        -2.718992         2.293876         0.566602
 C        -1.203241         2.228682         1.147059
 H         1.074389         1.137305        -0.095932
 H        -1.700722        -1.124206         0.831123
 H        -1.856942         0.072986         2.114261
 H        -3.732837         0.456925        -0.512207
 H        -1.288187         0.186374        -1.668392
 H        -2.438276         4.196639        -0.624626
 H        -3.601517         2.933721        -1.365803
 H        -3.567851         2.569348         1.190630
 H        -0.735741         3.155614         0.819073
 H        -1.170843         2.220631         2.319192
