19
Iteration:  2597
 O         0.609467         0.714480         0.550915
 C        -0.742074         1.039504         0.430279
 C        -1.798435        -0.077285         1.042586
 C        -2.795988         0.778430         0.015758
 C        -1.659929         1.034739        -0.866996
 O        -1.588788         2.221616        -1.577320
 C        -2.575240         3.135943        -0.760167
 C        -2.691077         2.303897         0.553356
 C        -1.294985         2.254012         1.235701
 H         1.201437         1.502331         0.417803
 H        -1.606996        -1.112854         0.838303
 H        -2.052345        -0.114622         2.152531
 H        -3.708470         0.556586        -0.451986
 H        -1.363364         0.173090        -1.431024
 H        -2.138981         4.166224        -0.593810
 H        -3.431398         3.117567        -1.392018
 H        -3.535770         2.647823         1.175294
 H        -0.543473         3.096796         0.905342
 H        -1.276327         2.172415         2.265741
