19
Iteration:  3050charge 0 multiplicity 1
 O         0.600765         0.700824         0.481132
 C        -0.766371         0.999579         0.458510
 C        -1.839321        -0.064949         0.971173
 C        -2.760799         0.845528         0.071469
 C        -1.563113         0.996396        -0.844734
 O        -1.619425         2.338999        -1.501651
 C        -2.528688         3.043107        -0.759047
 C        -2.678723         2.279062         0.592025
 C        -1.330868         2.262972         1.219580
 H         1.178873         1.405580         0.088886
 H        -1.757175        -1.071222         0.532451
 H        -1.936488        -0.166849         2.012125
 H        -3.738015         0.601345        -0.339389
 H        -1.301060         0.228466        -1.597104
 H        -2.118675         3.994780        -0.594504
 H        -3.555525         3.104924        -1.273440
 H        -3.690947         2.410138         1.103851
 H        -0.830176         3.111006         0.851132
 H        -1.152662         2.222209         2.312148
