19
Iteration:   959
 O         0.621309         0.577398         0.642142
 C        -0.738085         0.985479         0.504674
 C        -1.823317        -0.019860         0.930513
 C        -2.788970         0.868151         0.001418
 C        -1.556796         1.071154        -0.889213
 O        -1.684210         2.289886        -1.588350
 C        -2.605137         3.097314        -0.760889
 C        -2.702125         2.266201         0.520094
 C        -1.206762         2.284179         1.224468
 H         1.022765         1.402089         0.992059
 H        -1.566755        -1.000567         0.491605
 H        -2.118935        -0.062409         2.049549
 H        -3.723649         0.419209        -0.332276
 H        -1.190774         0.409650        -1.666809
 H        -2.182422         4.091058        -0.758472
 H        -3.540830         3.132292        -1.268108
 H        -3.503646         2.581682         1.274409
 H        -0.655134         3.202498         0.904224
 H        -1.296585         2.128591         2.350415
