19
Iteration:  4162charge 0 multiplicity 1
 O         0.575355         0.588740         0.638925
 C        -0.738053         0.978053         0.538589
 C        -1.871587        -0.041008         0.969236
 C        -2.723990         0.798085         0.029201
 C        -1.529651         1.043855        -0.918381
 O        -1.667281         2.367432        -1.521340
 C        -2.658324         3.028217        -0.783161
 C        -2.660543         2.299168         0.522463
 C        -1.227377         2.316838         1.143468
 H         1.306971         1.060471         0.151478
 H        -1.597665        -1.106382         0.819859
 H        -1.858377         0.074404         2.046739
 H        -3.699241         0.512405        -0.402827
 H        -1.339585         0.377237        -1.828355
 H        -2.261142         4.004573        -0.456355
 H        -3.550709         3.118404        -1.275533
 H        -3.545961         2.580643         1.235512
 H        -0.659026         3.270734         0.798016
 H        -1.229550         2.542708         2.288769
