19
Iteration:  3239charge 0 multiplicity 1
 O         0.568076         0.631508         0.614083
 C        -0.773635         1.017238         0.474202
 C        -1.753074        -0.142937         0.894697
 C        -2.730835         0.843019         0.055973
 C        -1.560493         1.115206        -0.863879
 O        -1.730279         2.293338        -1.580483
 C        -2.666173         3.105000        -0.827851
 C        -2.677378         2.333957         0.624531
 C        -1.156777         2.229620         1.247903
 H         1.077661         1.399537         0.385847
 H        -1.581697        -1.161332         0.677232
 H        -2.139350         0.031263         1.915904
 H        -3.601543         0.362651        -0.439380
 H        -1.228771         0.297559        -1.615012
 H        -2.167523         4.032903        -0.688090
 H        -3.686660         3.129329        -1.337037
 H        -3.475888         2.606562         1.351514
 H        -0.648580         3.097569         0.865382
 H        -0.952671         2.208225         2.352862
