19
Iteration:  1901charge 0 multiplicity 1
 O         0.595600         0.616748         0.660893
 C        -0.734101         0.949361         0.529043
 C        -1.785879        -0.050557         0.952492
 C        -2.650500         0.835997         0.084893
 C        -1.586848         0.998523        -0.911562
 O        -1.729900         2.343511        -1.635948
 C        -2.603843         3.122332        -0.775012
 C        -2.697375         2.326390         0.592756
 C        -1.279182         2.277092         1.144652
 H         1.131297         1.479239         0.537230
 H        -1.815853        -0.957939         0.443686
 H        -1.996365        -0.332999         2.037055
 H        -3.564907         0.477620        -0.493234
 H        -1.264493         0.298216        -1.672439
 H        -2.127767         4.164110        -0.513159
 H        -3.692000         3.161265        -1.170537
 H        -3.480923         2.539585         1.258461
 H        -0.640759         3.003569         0.847652
 H        -1.165448         2.109517         2.192624
