19
Iteration:  1437charge 0 multiplicity 1
 O         0.547499         0.626219         0.612119
 C        -0.784397         0.952344         0.438564
 C        -1.851289         0.006711         0.986858
 C        -2.742942         0.864646         0.009206
 C        -1.512506         1.033037        -0.860965
 O        -1.544717         2.357746        -1.478478
 C        -2.625667         3.022776        -0.806165
 C        -2.716670         2.278519         0.597919
 C        -1.261563         2.295261         1.183221
 H         1.116744         0.711662        -0.129693
 H        -1.450338        -1.010372         0.733003
 H        -2.220425         0.054529         1.911283
 H        -3.658530         0.532670        -0.422667
 H        -1.211275         0.279621        -1.616722
 H        -2.365934         4.108894        -0.715698
 H        -3.573218         2.803940        -1.398205
 H        -3.580273         2.686701         1.194213
 H        -0.832365         3.165809         0.695937
 H        -1.143090         2.302088         2.308267
