19
Iteration:  3316
 O         0.730640         0.662298         0.554360
 C        -0.711645         0.933765         0.514163
 C        -1.879142        -0.139337         0.930024
 C        -2.780572         0.804594         0.065808
 C        -1.560572         1.051985        -0.851590
 O        -1.639839         2.352946        -1.541902
 C        -2.624034         3.045536        -0.760092
 C        -2.776714         2.309759         0.615784
 C        -1.223494         2.364972         1.170067
 H         1.063565         1.432438         0.079723
 H        -1.893947        -1.124732         0.498453
 H        -2.150266        -0.062267         1.975916
 H        -3.733479         0.358211        -0.385487
 H        -1.578184         0.310140        -1.701202
 H        -2.342256         4.063531        -0.648791
 H        -3.566408         3.030923        -1.335055
 H        -3.560813         2.570684         1.328954
 H        -0.567054         3.171668         0.768402
 H        -1.258446         2.365774         2.287442
