19
Iteration:  3903charge 0 multiplicity 1
 O         0.618702         0.569493         0.641777
 C        -0.718200         0.995127         0.505341
 C        -1.834390         0.030377         0.910212
 C        -2.757337         0.847477         0.024905
 C        -1.557080         1.069075        -0.843163
 O        -1.614591         2.271825        -1.554951
 C        -2.660101         3.101433        -0.746546
 C        -2.730662         2.239058         0.582612
 C        -1.274626         2.291283         1.121515
 H         1.285642         1.216907         0.339841
 H        -1.524089        -1.041556         0.663658
 H        -2.013632         0.090589         1.996580
 H        -3.624345         0.541429        -0.604470
 H        -1.593578         0.198625        -1.554219
 H        -2.110448         4.082614        -0.619434
 H        -3.662960         3.212408        -1.230957
 H        -3.521775         2.553518         1.349902
 H        -0.859851         3.354241         0.743292
 H        -0.869520         2.254751         2.144299
