19
Iteration:   164
 O         0.606720         0.607351         0.596569
 C        -0.746418         1.055628         0.461706
 C        -1.796812         0.051873         0.995950
 C        -2.792190         0.818313         0.083099
 C        -1.524189         1.071151        -0.931381
 O        -1.694033         2.309268        -1.641068
 C        -2.561805         3.089512        -0.747238
 C        -2.663118         2.250077         0.530339
 C        -1.262244         2.223140         1.193224
 H         0.872344         0.790036         1.537377
 H        -1.713168        -0.976936         0.633251
 H        -2.019504        -0.042471         2.062527
 H        -3.689852         0.347150        -0.345412
 H        -1.310659         0.230974        -1.617478
 H        -2.174418         4.089545        -0.630826
 H        -3.569361         3.328804        -1.353729
 H        -3.367650         2.543412         1.270453
 H        -0.768170         3.198414         1.152828
 H        -1.514800         1.927751         2.236799
