19
Iteration:  1640
 O         0.654363         0.659347         0.643020
 C        -0.772065         0.978376         0.561630
 C        -1.856591        -0.036413         0.888503
 C        -2.796349         0.829197        -0.054321
 C        -1.539126         1.038197        -0.891302
 O        -1.732442         2.286288        -1.603739
 C        -2.636808         3.083273        -0.789370
 C        -2.653164         2.295744         0.618088
 C        -1.161823         2.326094         1.196232
 H         0.968817         0.573485         1.529248
 H        -1.651869        -1.010771         0.588101
 H        -2.030810        -0.208275         1.988302
 H        -3.692255         0.491834        -0.538994
 H        -1.124306         0.412127        -1.686698
 H        -2.271449         4.118906        -0.736137
 H        -3.754701         3.039287        -1.162667
 H        -3.369440         2.700956         1.252354
 H        -0.532875         3.170629         0.781498
 H        -1.118931         2.226824         2.271016
