19
Iteration:  2723
 O         0.546531         0.668742         0.656588
 C        -0.751257         1.008313         0.427384
 C        -1.839334        -0.069194         0.988603
 C        -2.708657         0.826125         0.114359
 C        -1.557792         0.998435        -0.892892
 O        -1.628718         2.299380        -1.604621
 C        -2.649420         3.108340        -0.807531
 C        -2.716825         2.320920         0.589645
 C        -1.184546         2.250230         1.134795
 H         1.044521         1.537967         0.781964
 H        -1.602393        -1.018817         0.468792
 H        -1.992835        -0.137379         1.996184
 H        -3.659245         0.310512        -0.205346
 H        -1.480459         0.194312        -1.675044
 H        -2.301510         4.125877        -0.692012
 H        -3.620814         3.277041        -1.334886
 H        -3.460886         2.592883         1.353424
 H        -0.652448         3.133713         0.869075
 H        -0.882956         1.991564         2.225796
