19
Iteration:  4411charge 0 multiplicity 1
 O         0.569859         0.684303         0.597010
 C        -0.789295         0.983793         0.442711
 C        -1.851954        -0.032897         0.926488
 C        -2.789303         0.826354         0.073252
 C        -1.456907         1.042896        -0.895759
 O        -1.631985         2.188873        -1.534246
 C        -2.560810         3.114429        -0.731733
 C        -2.690388         2.315229         0.552848
 C        -1.299942         2.320873         1.160312
 H         1.200331         1.314539         0.227556
 H        -1.727164        -1.102097         0.545070
 H        -1.993072        -0.220344         2.034566
 H        -3.801379         0.628734        -0.360063
 H        -1.265078         0.114764        -1.616555
 H        -2.178173         4.103880        -0.224791
 H        -3.472824         3.272136        -1.323065
 H        -3.464215         2.600977         1.318366
 H        -0.554819         3.205496         1.003680
 H        -1.304459         2.077282         2.324536
