19
Iteration:  1651charge 0 multiplicity 1
 O         0.689523         0.677614         0.607135
 C        -0.663458         0.936251         0.508091
 C        -1.862937        -0.060375         0.949578
 C        -2.751115         0.889414        -0.002081
 C        -1.571681         1.038308        -0.942822
 O        -1.719967         2.292361        -1.587264
 C        -2.564799         3.041671        -0.707270
 C        -2.692001         2.350702         0.569219
 C        -1.293017         2.311253         1.179989
 H         0.850512         0.661555         1.576107
 H        -1.837332        -0.883953         0.328285
 H        -2.226791        -0.244046         1.994941
 H        -3.708903         0.537486        -0.339133
 H        -1.408737         0.096750        -1.481408
 H        -2.251895         4.082441        -0.755147
 H        -3.541753         2.988631        -1.329296
 H        -3.511516         2.441723         1.178875
 H        -0.619997         3.184503         0.851778
 H        -1.279122         2.349881         2.268332
