19
Iteration:  4054
 O         0.546513         0.578816         0.663346
 C        -0.719318         0.982442         0.414459
 C        -1.830577        -0.068096         0.969350
 C        -2.749965         0.834500         0.093403
 C        -1.537500         1.087452        -0.858706
 O        -1.638275         2.307832        -1.597875
 C        -2.629233         3.063275        -0.746977
 C        -2.678816         2.279484         0.543505
 C        -1.177678         2.347059         1.117864
 H         1.122994         1.319654         0.355205
 H        -1.570826        -1.115220         0.663704
 H        -2.193986        -0.002881         1.988111
 H        -3.750473         0.575944        -0.276034
 H        -1.255054         0.291863        -1.596344
 H        -2.287805         4.101947        -0.564701
 H        -3.759281         3.113438        -1.123799
 H        -3.610609         2.524406         1.170730
 H        -0.807054         3.293101         0.959260
 H        -1.354775         2.210291         2.253225
