19
Iteration:  3210charge 0 multiplicity 1
 O         0.659612         0.694162         0.566359
 C        -0.740515         0.993529         0.482944
 C        -1.776081        -0.007123         0.893748
 C        -2.797956         0.875530         0.071229
 C        -1.639646         1.015765        -0.888624
 O        -1.667351         2.290974        -1.491147
 C        -2.544555         3.012822        -0.708303
 C        -2.705572         2.282167         0.537796
 C        -1.268849         2.216897         1.138903
 H         1.044176         1.514711         0.241493
 H        -1.722855        -1.141684         0.641150
 H        -2.183774        -0.021835         1.936722
 H        -3.632173         0.281384        -0.320217
 H        -1.441988         0.281659        -1.610099
 H        -2.078017         4.057780        -0.351492
 H        -3.484422         3.302228        -1.172211
 H        -3.389480         2.757206         1.190205
 H        -0.786836         3.245368         1.005371
 H        -1.336808         2.099281         2.175851
