19
Iteration:  3894
 O         0.589727         0.536301         0.661878
 C        -0.752835         1.065357         0.450047
 C        -1.850880        -0.040228         0.962819
 C        -2.729865         0.804959         0.003326
 C        -1.491646         1.062643        -0.865004
 O        -1.685997         2.330088        -1.481373
 C        -2.605217         3.048828        -0.777439
 C        -2.762406         2.263934         0.571154
 C        -1.186438         2.345986         1.116951
 H         1.093665         1.309756         0.339022
 H        -1.488084        -0.983793         0.477894
 H        -2.002876        -0.036882         2.048214
 H        -3.818049         0.486442        -0.253486
 H        -1.396294         0.281580        -1.647077
 H        -2.265841         4.149442        -0.758302
 H        -3.663236         3.141145        -1.314155
 H        -3.610378         2.671344         1.160049
 H        -0.567794         3.134254         0.680910
 H        -1.006778         2.178587         2.116880
