19
Iteration:  1049
 O         0.621383         0.784071         0.575732
 C        -0.816278         0.973780         0.569875
 C        -1.842980        -0.063058         0.964762
 C        -2.813944         0.774618         0.067540
 C        -1.534357         1.052376        -0.877527
 O        -1.656002         2.314974        -1.632557
 C        -2.432005         3.080156        -0.811973
 C        -2.707648         2.296496         0.565864
 C        -1.289106         2.249578         1.262885
 H         0.833224         0.227677        -0.165390
 H        -1.660595        -1.037245         0.543372
 H        -2.311256        -0.092336         2.047723
 H        -3.730938         0.436833        -0.460993
 H        -1.133851         0.213671        -1.430641
 H        -1.976844         4.052368        -0.648638
 H        -3.362725         3.187752        -1.242762
 H        -3.490611         2.673242         1.215280
 H        -0.753627         3.164968         1.125632
 H        -1.437457         2.046561         2.302218
