19
Iteration:   143charge 0 multiplicity 1
 O         0.612894         0.797892         0.417393
 C        -0.781105         0.931264         0.554775
 C        -1.881232        -0.143344         0.985176
 C        -2.769408         0.826813         0.008210
 C        -1.539850         1.018697        -0.838449
 O        -1.645968         2.230636        -1.570204
 C        -2.456462         3.104746        -0.758746
 C        -2.718895         2.356653         0.572660
 C        -1.313413         2.267436         1.263715
 H         1.097034         1.113617         1.177046
 H        -1.702671        -1.119805         0.677822
 H        -2.237074        -0.213429         2.011292
 H        -3.807866         0.644141        -0.335571
 H        -1.169976         0.177636        -1.478604
 H        -1.974491         4.076621        -0.636777
 H        -3.348152         3.361714        -1.418984
 H        -3.634539         2.769958         0.952124
 H        -0.674215         3.078312         0.957769
 H        -1.310693         2.124126         2.356172
