19
Iteration:   381charge 0 multiplicity 1
 O         0.559355         0.522883         0.695753
 C        -0.729297         0.948588         0.482350
 C        -1.776920        -0.001602         1.021918
 C        -2.732325         0.829750         0.038649
 C        -1.484364         1.036898        -0.906619
 O        -1.616302         2.409983        -1.515382
 C        -2.752051         3.074004        -0.857300
 C        -2.715713         2.372183         0.581320
 C        -1.251325         2.250905         1.075009
 H         1.241357         1.038145         0.270546
 H        -1.667224        -1.134615         0.929574
 H        -2.053699         0.328859         2.062377
 H        -3.610670         0.340484        -0.405606
 H        -1.130110         0.232249        -1.589375
 H        -2.469995         4.165446        -0.744562
 H        -3.638478         2.840111        -1.461860
 H        -3.403038         2.619893         1.330565
 H        -0.773469         3.202011         0.605771
 H        -1.097269         2.129691         2.170749
