19
Iteration:  2661charge 0 multiplicity 1
 O         0.576454         0.569402         0.657911
 C        -0.781953         1.025881         0.518375
 C        -1.787343         0.018579         1.009707
 C        -2.719774         0.776862         0.103875
 C        -1.551148         1.090440        -0.956996
 O        -1.666625         2.348173        -1.565528
 C        -2.630000         3.019156        -0.777034
 C        -2.644213         2.308479         0.510765
 C        -1.273583         2.272051         1.144676
 H         1.268317         1.077220         0.125455
 H        -1.686818        -1.042494         0.531076
 H        -2.028258        -0.131798         2.186670
 H        -3.706231         0.417376        -0.077686
 H        -1.168767         0.476594        -1.702766
 H        -2.422962         4.168715        -0.656038
 H        -3.623486         2.944327        -1.320458
 H        -3.437878         2.603989         1.147907
 H        -0.753832         3.198602         0.722476
 H        -1.158539         2.283871         2.201626
