19
Iteration:  1794
 O         0.639894         0.673580         0.575385
 C        -0.727563         0.952064         0.527492
 C        -1.862408        -0.035240         0.999090
 C        -2.748720         0.754057         0.057026
 C        -1.448403         1.056048        -0.841020
 O        -1.758654         2.383108        -1.632350
 C        -2.668200         3.094076        -0.809491
 C        -2.644871         2.319213         0.553931
 C        -1.222151         2.245001         1.161532
 H         0.677854         0.203565         1.461405
 H        -1.649443        -1.010617         0.574430
 H        -2.142065        -0.087374         2.081727
 H        -3.670656         0.361043        -0.320393
 H        -1.320943         0.446605        -1.737194
 H        -2.327185         4.134145        -0.710807
 H        -3.625551         3.134247        -1.242969
 H        -3.332420         2.754260         1.220504
 H        -0.565289         3.194326         0.807343
 H        -1.091814         2.162156         2.260546
