19
Iteration:   850charge 0 multiplicity 1
 O         0.638950         0.531813         0.702740
 C        -0.686068         0.974718         0.512358
 C        -1.852843         0.029866         0.934436
 C        -2.776465         0.856989         0.057782
 C        -1.463484         1.072449        -0.931277
 O        -1.673166         2.397083        -1.553523
 C        -2.656347         2.992696        -0.804029
 C        -2.728579         2.247540         0.567749
 C        -1.270626         2.397467         1.156540
 H         0.716201        -0.281162         0.136310
 H        -1.627993        -1.002221         0.547584
 H        -1.884754         0.098921         2.101086
 H        -3.717182         0.592917        -0.446481
 H        -0.949968         0.466130        -1.713113
 H        -2.473137         4.083230        -0.661103
 H        -3.726857         2.921376        -1.229504
 H        -3.511787         2.483803         1.404252
 H        -0.711983         3.192952         0.634337
 H        -1.166310         2.542491         2.195430
