19
Iteration:   151
 O         0.597754         0.741565         0.470049
 C        -0.766490         0.908250         0.529351
 C        -1.886551        -0.043308         0.980813
 C        -2.720015         0.801622         0.073381
 C        -1.529850         1.039462        -0.869134
 O        -1.661404         2.275058        -1.624264
 C        -2.490545         3.129420        -0.796249
 C        -2.699256         2.312286         0.536088
 C        -1.335105         2.245000         1.299589
 H         1.002804         1.035452         1.285303
 H        -1.814484        -1.132405         0.506208
 H        -1.980355        -0.006892         2.064629
 H        -3.653420         0.399747        -0.228684
 H        -1.257250         0.291093        -1.556556
 H        -1.896656         4.004054        -0.540499
 H        -3.585944         3.274415        -1.263668
 H        -3.570899         2.678687         1.066255
 H        -0.629673         3.089274         0.945681
 H        -1.279326         2.205358         2.405102
