19
Iteration:   726charge 0 multiplicity 1
 O         0.587062         0.677719         0.573809
 C        -0.779765         0.955060         0.477036
 C        -1.846625         0.043631         1.006437
 C        -2.797528         0.787885         0.004166
 C        -1.550966         1.020952        -0.906420
 O        -1.607033         2.310878        -1.526428
 C        -2.558518         3.089732        -0.712425
 C        -2.671374         2.306930         0.538065
 C        -1.260446         2.228238         1.142316
 H         1.101138         1.493345         0.640968
 H        -1.759997        -1.075740         0.630563
 H        -2.015019         0.046141         2.111785
 H        -3.680533         0.326214        -0.338202
 H        -1.417340         0.143344        -1.499088
 H        -2.174165         4.096577        -0.738676
 H        -3.478104         2.985934        -1.387989
 H        -3.375254         2.653849         1.317737
 H        -0.601615         3.119431         0.986859
 H        -1.511855         2.021546         2.198600
