19
Iteration:  2508charge 0 multiplicity 1
 O         0.637895         0.586642         0.596104
 C        -0.775815         0.930583         0.491452
 C        -1.783158         0.032261         0.987947
 C        -2.738345         0.787329         0.039726
 C        -1.570778         1.020572        -0.898482
 O        -1.608612         2.357580        -1.498352
 C        -2.674484         3.017748        -0.808387
 C        -2.769673         2.318156         0.600952
 C        -1.241542         2.333508         1.126216
 H         1.215697         1.370686         0.515054
 H        -1.701985        -1.045001         0.677711
 H        -2.074056        -0.029517         2.081058
 H        -3.689816         0.327505        -0.330825
 H        -1.203807         0.390917        -1.659620
 H        -2.274631         4.098751        -0.645881
 H        -3.621471         2.895335        -1.410517
 H        -3.460155         2.804388         1.255771
 H        -0.580992         3.102466         0.575345
 H        -1.247917         2.507387         2.181083
