19
Iteration:  3845
 O         0.611598         0.588981         0.652203
 C        -0.696046         1.012400         0.468078
 C        -1.879870         0.011643         0.887600
 C        -2.772785         0.799377         0.050822
 C        -1.522689         1.037966        -0.890696
 O        -1.675101         2.276876        -1.460851
 C        -2.667104         3.046236        -0.789725
 C        -2.656862         2.323323         0.542037
 C        -1.252860         2.297365         1.143884
 H         1.127770         1.351949         0.281705
 H        -1.951678        -0.986016         0.484845
 H        -1.913044         0.070116         1.989185
 H        -3.645948         0.414843        -0.349837
 H        -1.042265         0.462589        -1.683726
 H        -2.180583         4.004470        -0.702832
 H        -3.646607         3.176077        -1.175016
 H        -3.312620         2.828664         1.256348
 H        -0.671818         3.263388         0.868323
 H        -1.187633         2.030327         2.302847
