19
Iteration:    76charge 0 multiplicity 1
 O         0.621271         0.588499         0.510951
 C        -0.723965         0.992938         0.513027
 C        -1.875129         0.027338         0.927598
 C        -2.734533         0.855606         0.048063
 C        -1.505436         1.052084        -0.872113
 O        -1.638685         2.306291        -1.478320
 C        -2.610731         3.074476        -0.792848
 C        -2.752962         2.290692         0.483876
 C        -1.255011         2.306788         1.221197
 H         1.013544         0.650685         1.420217
 H        -1.722596        -1.021606         0.543580
 H        -2.248856        -0.053738         1.922364
 H        -3.656921         0.408707        -0.235165
 H        -1.174368         0.341758        -1.599260
 H        -2.262065         4.085690        -0.679124
 H        -3.572012         3.167289        -1.302009
 H        -3.559607         2.500427         1.178488
 H        -0.573472         3.133103         0.860933
 H        -1.285834         2.091505         2.289449
