19
Iteration:  2637
 O         0.665241         0.671276         0.557267
 C        -0.773470         0.963342         0.503049
 C        -1.812495        -0.070171         0.952244
 C        -2.789998         0.864442         0.035363
 C        -1.587993         1.004204        -0.785483
 O        -1.561160         2.251029        -1.503967
 C        -2.657803         3.064824        -0.798473
 C        -2.757889         2.355719         0.551117
 C        -1.248878         2.299591         1.141924
 H         1.145261         1.386379         0.134757
 H        -1.756402        -1.197741         0.587759
 H        -1.884028        -0.032155         2.108117
 H        -3.700192         0.520619        -0.529127
 H        -1.398401         0.200709        -1.464301
 H        -2.250774         4.129612        -0.660277
 H        -3.649840         3.180137        -1.415481
 H        -3.484649         2.645443         1.264292
 H        -0.784663         3.238196         0.910728
 H        -1.172241         2.201605         2.289598
