19
Iteration:   915
 O         0.644865         0.845884         0.431451
 C        -0.771961         1.049392         0.533805
 C        -1.882296        -0.015342         0.905419
 C        -2.852834         0.808071        -0.000808
 C        -1.581857         0.944337        -0.819155
 O        -1.617578         2.175730        -1.532700
 C        -2.422164         3.106311        -0.738757
 C        -2.718328         2.284560         0.585671
 C        -1.328755         2.259594         1.238354
 H         1.041596         0.420131         1.222754
 H        -1.723471        -1.004999         0.336073
 H        -1.960247        -0.112027         2.098347
 H        -3.834238         0.711771        -0.486465
 H        -1.312573         0.050681        -1.425095
 H        -1.799828         3.984478        -0.508540
 H        -3.169765         3.495321        -1.401995
 H        -3.629775         2.592521         1.275320
 H        -0.739841         3.214393         1.037993
 H        -1.426888         1.880712         2.282198
