19
Iteration:  4552
 O         0.540247         0.651078         0.593850
 C        -0.805246         0.996856         0.504488
 C        -1.740639        -0.086791         0.952923
 C        -2.772680         0.853311         0.029067
 C        -1.554485         1.063817        -0.780862
 O        -1.653506         2.269896        -1.610907
 C        -2.548982         3.113697        -0.793129
 C        -2.683209         2.347075         0.554928
 C        -1.270089         2.256075         1.216127
 H         1.117225         1.313495         0.192275
 H        -1.799959        -1.112368         0.615877
 H        -1.955015        -0.249264         2.032830
 H        -3.692865         0.584624        -0.511671
 H        -1.278270         0.214104        -1.493196
 H        -1.940404         3.953950        -0.635568
 H        -3.579877         3.184025        -1.340330
 H        -3.529334         2.625720         1.132495
 H        -0.564141         2.972641         0.989509
 H        -1.280493         2.067153         2.362029
