19
Iteration:  2175
 O         0.610611         0.670667         0.707901
 C        -0.765404         1.054989         0.462520
 C        -1.805175        -0.008439         0.992938
 C        -2.753438         0.881959         0.066094
 C        -1.571821         1.069665        -0.942794
 O        -1.783904         2.207901        -1.686695
 C        -2.591419         3.099785        -0.727176
 C        -2.632610         2.230927         0.531571
 C        -1.227826         2.236335         1.213217
 H         1.225132         1.348505         0.300930
 H        -1.509753        -0.978465         0.544667
 H        -1.910241        -0.141620         2.047060
 H        -3.722650         0.557538        -0.261100
 H        -1.250801         0.272362        -1.666055
 H        -1.874937         3.860120        -0.489925
 H        -3.644702         3.342501        -1.130224
 H        -3.410295         2.528629         1.124326
 H        -0.670316         3.108813         0.940706
 H        -1.110954         2.076429         2.365253
