19
Iteration:  2104
 O         0.645873         0.586196         0.521879
 C        -0.694600         1.003845         0.481164
 C        -1.851410         0.029105         1.024975
 C        -2.779327         0.811593         0.007729
 C        -1.574182         1.015585        -0.876065
 O        -1.572260         2.329784        -1.390564
 C        -2.707167         3.051656        -0.836659
 C        -2.742209         2.277256         0.558668
 C        -1.206638         2.336834         1.147225
 H         1.098275         1.386135         0.109560
 H        -1.537426        -0.999371         0.727466
 H        -2.170933        -0.045984         2.110024
 H        -3.849308         0.606392        -0.243970
 H        -1.307165         0.237277        -1.580571
 H        -2.503102         4.130573        -0.747350
 H        -3.555389         2.740088        -1.496592
 H        -3.754021         2.376864         1.141921
 H        -0.583392         3.215818         0.895631
 H        -1.159632         2.202016         2.176225
