19
Iteration:   594
 O         0.585810         0.837300         0.494716
 C        -0.779701         0.907155         0.530155
 C        -1.828819        -0.089850         1.009800
 C        -2.820045         0.833669         0.133757
 C        -1.686276         1.017331        -0.926043
 O        -1.510569         2.243281        -1.530576
 C        -2.494820         3.087269        -0.868646
 C        -2.643769         2.307377         0.517583
 C        -1.279409         2.205381         1.290466
 H         0.770088         1.768483         0.249474
 H        -1.960269        -1.054501         0.454151
 H        -2.111673        -0.033141         2.061168
 H        -3.754172         0.434483        -0.135034
 H        -1.558712         0.152901        -1.517708
 H        -2.009864         4.019931        -0.692464
 H        -3.398157         3.190451        -1.560057
 H        -3.498866         2.628899         1.168217
 H        -0.686260         3.114366         1.198423
 H        -1.410487         2.084062         2.374483
