19
Iteration:  3176charge 0 multiplicity 1
 O         0.550702         0.652184         0.479918
 C        -0.801555         0.984471         0.567719
 C        -1.791115        -0.088959         0.977951
 C        -2.726799         0.799767         0.092607
 C        -1.529867         1.070765        -0.872367
 O        -1.612267         2.373082        -1.566438
 C        -2.618642         3.007201        -0.732472
 C        -2.663546         2.272546         0.527966
 C        -1.284632         2.304123         1.221904
 H         0.966307         1.358585         0.012914
 H        -1.548237        -1.061481         0.444197
 H        -2.219155        -0.073486         2.003364
 H        -3.716959         0.431575        -0.272632
 H        -1.216004         0.262620        -1.525506
 H        -2.228807         4.103289        -0.556619
 H        -3.614506         3.113896        -1.153223
 H        -3.320413         2.774467         1.192874
 H        -0.562265         3.067879         0.854743
 H        -1.377154         2.234512         2.257940
