19
Iteration:  3985charge 0 multiplicity 1
 O         0.567299         0.645329         0.561047
 C        -0.790038         0.978656         0.560121
 C        -1.806970        -0.051858         1.000912
 C        -2.772105         0.789865         0.013396
 C        -1.582064         1.050344        -0.864854
 O        -1.588274         2.300388        -1.560996
 C        -2.590864         3.122381        -0.759343
 C        -2.720902         2.323263         0.544724
 C        -1.238951         2.264381         1.143358
 H         1.179080         1.431974         0.439347
 H        -1.659850        -1.057340         0.691500
 H        -1.843633         0.079074         2.091151
 H        -3.735553         0.426729        -0.288290
 H        -1.307354         0.215262        -1.504584
 H        -2.191561         4.137693        -0.675684
 H        -3.607514         3.195562        -1.380776
 H        -3.550269         2.484631         1.232851
 H        -0.550929         3.009542         0.818327
 H        -1.192253         2.036675         2.187817
