19
Iteration:  1857charge 0 multiplicity 1
 O         0.548607         0.748035         0.389871
 C        -0.777724         0.889869         0.515816
 C        -1.877372        -0.046013         1.044430
 C        -2.773920         0.885783         0.003047
 C        -1.473903         1.020981        -0.862847
 O        -1.557397         2.295001        -1.511797
 C        -2.593883         3.084707        -0.784442
 C        -2.706751         2.266203         0.578259
 C        -1.251929         2.254325         1.230970
 H         1.048667         1.182492         1.154749
 H        -1.536735        -0.947047         0.649008
 H        -2.054122        -0.228661         2.150594
 H        -3.754159         0.422218        -0.267886
 H        -1.511690         0.165274        -1.523815
 H        -2.190033         4.158635        -0.624918
 H        -3.663728         3.056404        -1.259210
 H        -3.475884         2.631727         1.211266
 H        -0.793157         3.024477         0.778510
 H        -1.275476         2.393445         2.243789
