19
Iteration:  1770
 O         0.667965         0.623290         0.625478
 C        -0.664762         0.968175         0.591457
 C        -1.825424        -0.021031         0.849877
 C        -2.734149         0.866652        -0.014561
 C        -1.591631         1.025357        -0.913869
 O        -1.743768         2.293761        -1.572308
 C        -2.651614         3.064271        -0.731054
 C        -2.703039         2.290698         0.606745
 C        -1.218541         2.346571         1.122245
 H         0.753177         0.408714         1.594533
 H        -1.672489        -0.977194         0.470831
 H        -1.989055         0.002501         1.982139
 H        -3.707221         0.415475        -0.357360
 H        -1.306677         0.249052        -1.655940
 H        -2.142550         4.084172        -0.709578
 H        -3.617883         3.189300        -1.256417
 H        -3.409332         2.569908         1.337533
 H        -0.592150         3.202301         0.703975
 H        -1.248696         2.511992         2.177747
