19
Iteration:  1385charge 0 multiplicity 1
 O         0.610475         0.845871         0.662443
 C        -0.843962         0.981628         0.449757
 C        -1.827996        -0.057265         0.894395
 C        -2.812266         0.827896         0.084314
 C        -1.583910         1.037608        -0.890261
 O        -1.648065         2.205927        -1.628348
 C        -2.461760         3.145810        -0.760670
 C        -2.710351         2.284063         0.545402
 C        -1.248421         2.210530         1.291044
 H         0.760551         0.069606         0.125928
 H        -1.720223        -1.065920         0.495373
 H        -1.865376        -0.221643         2.022961
 H        -3.702643         0.357002        -0.375371
 H        -1.364478         0.247669        -1.529726
 H        -1.872505         4.084712        -0.603313
 H        -3.333306         3.460613        -1.396700
 H        -3.319246         2.857399         1.259766
 H        -0.562910         3.049009         1.094460
 H        -1.373584         1.994701         2.267821
