19
Iteration:  4728charge 0 multiplicity 1
 O         0.559965         0.591456         0.517281
 C        -0.776550         0.964331         0.499867
 C        -1.830157        -0.044889         0.982830
 C        -2.808153         0.833451         0.106608
 C        -1.464071         1.084318        -0.854109
 O        -1.591400         2.330053        -1.547609
 C        -2.539690         3.093571        -0.856576
 C        -2.716569         2.274052         0.594147
 C        -1.303554         2.257465         1.241633
 H         0.978737         1.303663         0.000340
 H        -1.748002        -1.019266         0.490168
 H        -2.012853        -0.028906         2.077663
 H        -3.780096         0.495630        -0.019485
 H        -1.234035         0.388142        -1.608225
 H        -2.215384         4.077309        -0.766014
 H        -3.474023         3.219164        -1.430782
 H        -3.557589         2.705347         1.047355
 H        -0.753317         3.117984         0.946627
 H        -1.249729         2.260566         2.449573
