19
Iteration:  2967
 O         0.576080         0.603851         0.651034
 C        -0.694057         0.990668         0.487347
 C        -1.806381        -0.029706         0.900226
 C        -2.709168         0.833298         0.012505
 C        -1.543144         1.071275        -0.956311
 O        -1.716720         2.310936        -1.446341
 C        -2.628624         3.041241        -0.728126
 C        -2.698973         2.297115         0.576085
 C        -1.233301         2.323330         1.150014
 H         1.155909         1.047860         0.010085
 H        -1.695748        -1.001842         0.426244
 H        -2.120434        -0.130155         2.013699
 H        -3.617291         0.420288        -0.429324
 H        -1.422889         0.316921        -1.762598
 H        -2.238670         4.149250        -0.651970
 H        -3.658363         3.171351        -1.140822
 H        -3.559264         2.428786         1.171519
 H        -0.561892         3.265676         0.823711
 H        -1.084866         2.184563         2.245146
