19
Iteration:  2269charge 0 multiplicity 1
 O         0.662487         0.671140         0.546536
 C        -0.756541         0.982963         0.537889
 C        -1.834099        -0.021270         0.953003
 C        -2.756405         0.771226         0.085459
 C        -1.575216         1.067694        -0.866345
 O        -1.612548         2.258584        -1.521986
 C        -2.618818         3.097076        -0.798426
 C        -2.753427         2.319536         0.598428
 C        -1.277599         2.251349         1.164464
 H         1.098921         1.371851         0.032265
 H        -1.543626        -0.989317         0.623957
 H        -2.210974        -0.062860         2.047385
 H        -3.733703         0.372676        -0.325764
 H        -1.248861         0.232443        -1.498799
 H        -2.158826         4.106169        -0.867462
 H        -3.480960         3.128385        -1.373901
 H        -3.679909         2.693373         1.265239
 H        -0.743646         3.169176         0.678325
 H        -1.047254         2.292552         2.210674
