19
Iteration:  2202
 O         0.653145         0.535836         0.654069
 C        -0.757272         1.034050         0.511897
 C        -1.788261        -0.096508         0.965852
 C        -2.734692         0.767621        -0.003912
 C        -1.548894         1.077489        -0.887715
 O        -1.762781         2.264186        -1.584175
 C        -2.654336         3.084939        -0.766641
 C        -2.606270         2.396992         0.561229
 C        -1.297135         2.362179         1.149067
 H         1.220841         1.342632         0.493817
 H        -1.293535        -1.026783         0.671020
 H        -2.115871        -0.155659         2.056600
 H        -3.781451         0.424510        -0.249568
 H        -1.192668         0.393470        -1.633783
 H        -2.222241         4.124558        -0.794081
 H        -3.665358         3.060922        -1.054333
 H        -3.506233         2.720156         1.258946
 H        -0.617869         3.239118         0.829736
 H        -1.248878         2.365358         2.217973
