19
Iteration:  2507
 O         0.633492         0.590793         0.590546
 C        -0.783758         0.933654         0.494819
 C        -1.782236         0.035668         0.987016
 C        -2.735936         0.793011         0.046168
 C        -1.561341         1.021435        -0.907656
 O        -1.607422         2.350311        -1.494476
 C        -2.678951         3.013651        -0.799218
 C        -2.770407         2.322967         0.591476
 C        -1.238189         2.333163         1.125502
 H         1.207748         1.350713         0.518288
 H        -1.711632        -1.089341         0.672192
 H        -2.070601        -0.040808         2.086798
 H        -3.699451         0.305412        -0.311366
 H        -1.182762         0.399882        -1.677985
 H        -2.253887         4.082756        -0.661685
 H        -3.593233         2.916360        -1.390862
 H        -3.470315         2.792819         1.245936
 H        -0.580092         3.088443         0.587180
 H        -1.269398         2.506605         2.213078
