19
Iteration:  2002charge 0 multiplicity 1
 O         0.614684         0.691423         0.484548
 C        -0.769092         1.024154         0.469739
 C        -1.846268        -0.027387         0.973246
 C        -2.810010         0.788051         0.056261
 C        -1.542499         1.012272        -0.890934
 O        -1.618202         2.278150        -1.521351
 C        -2.513470         3.004467        -0.693071
 C        -2.746151         2.339559         0.537655
 C        -1.270352         2.305343         1.208307
 H         1.029729         1.538177         0.528386
 H        -1.707428        -1.097646         0.546668
 H        -2.041411        -0.168243         2.026046
 H        -3.770511         0.358793        -0.162382
 H        -1.042843         0.206122        -1.503991
 H        -2.183697         4.117728        -0.724499
 H        -3.490992         3.063679        -1.194893
 H        -3.490776         2.700039         1.249154
 H        -0.826603         3.213225         0.932357
 H        -1.260703         2.013551         2.227053
