19
Iteration:  3108charge 0 multiplicity 1
 O         0.582210         0.583337         0.641192
 C        -0.734079         1.020192         0.469513
 C        -1.840525        -0.005367         0.872552
 C        -2.733138         0.755731        -0.001624
 C        -1.504188         1.008779        -0.925759
 O        -1.689527         2.291968        -1.564708
 C        -2.710893         3.077298        -0.643688
 C        -2.676881         2.358985         0.653591
 C        -1.173320         2.335397         1.115427
 H         1.189434         1.355268         0.694233
 H        -1.494265        -0.853528         0.375998
 H        -2.101921        -0.152045         1.957705
 H        -3.707663         0.363526        -0.311014
 H        -1.261089         0.175920        -1.698505
 H        -2.322991         4.108901        -0.477784
 H        -3.635174         3.201319        -1.205916
 H        -3.535163         2.576801         1.336905
 H        -0.646894         3.149660         0.710290
 H        -1.109199         2.270060         2.187849
