19
Iteration:  2025
 O         0.590487         0.681861         0.617605
 C        -0.712088         0.925119         0.479203
 C        -1.763621        -0.069894         0.986404
 C        -2.722992         0.856437         0.044852
 C        -1.594886         1.028010        -0.866001
 O        -1.735722         2.328622        -1.632454
 C        -2.614920         3.129692        -0.898941
 C        -2.642885         2.253598         0.624677
 C        -1.262095         2.238864         1.258999
 H         1.091997         1.563074         0.694010
 H        -1.834326        -1.194378         0.596751
 H        -1.871811        -0.113973         2.025331
 H        -3.659266         0.535107        -0.357833
 H        -1.392242         0.132672        -1.526957
 H        -2.066460         4.116994        -0.611073
 H        -3.483881         3.588312        -1.463284
 H        -3.400648         2.478238         1.489576
 H        -0.759289         3.089637         0.846558
 H        -1.356567         2.108867         2.263771
