19
Iteration:  1885charge 0 multiplicity 1
 O         0.654372         0.658167         0.595608
 C        -0.709589         0.989032         0.427224
 C        -1.858576        -0.019852         0.931530
 C        -2.868607         0.818623         0.016570
 C        -1.549540         1.100981        -0.881593
 O        -1.669181         2.262483        -1.551931
 C        -2.598164         3.077612        -0.756855
 C        -2.674240         2.266914         0.545404
 C        -1.216110         2.232876         1.208817
 H         1.152348         1.454260         0.892252
 H        -1.518887        -1.091401         0.647246
 H        -2.028609         0.039977         1.990329
 H        -3.901062         0.459509        -0.049680
 H        -1.370504         0.248824        -1.569166
 H        -2.223721         4.048071        -0.587991
 H        -3.548432         3.146202        -1.218781
 H        -3.477694         2.770918         1.203811
 H        -0.629630         3.265269         0.978441
 H        -1.334076         2.145316         2.386956
