19
Iteration:  4069charge 0 multiplicity 1
 O         0.628304         0.601118         0.594896
 C        -0.789385         1.037105         0.565494
 C        -1.842214         0.070357         0.974816
 C        -2.784658         0.793886        -0.045505
 C        -1.569182         0.987717        -0.944600
 O        -1.650799         2.285302        -1.559844
 C        -2.626068         3.089812        -0.742707
 C        -2.685927         2.297818         0.587726
 C        -1.245587         2.267109         1.206522
 H         1.163159         1.367127         0.456790
 H        -1.640101        -0.944353         0.603878
 H        -1.920523        -0.044295         2.080295
 H        -3.751813         0.347551        -0.436157
 H        -1.306192         0.185727        -1.610561
 H        -2.183882         4.101690        -0.617189
 H        -3.431781         3.110439        -1.369211
 H        -3.383719         2.662506         1.335732
 H        -0.512286         3.050842         0.820141
 H        -0.978494         2.268116         2.228084
