19
Iteration:   493
 O         0.569388         0.623865         0.631264
 C        -0.793894         0.939499         0.537886
 C        -1.903375        -0.075569         0.924505
 C        -2.788081         0.765750         0.040211
 C        -1.522196         1.098871        -0.878102
 O        -1.602001         2.328037        -1.514624
 C        -2.707737         3.059811        -0.799455
 C        -2.599609         2.332880         0.564429
 C        -1.173964         2.350843         1.098993
 H         0.998671         1.489653         0.680826
 H        -1.601948        -1.064368         0.735463
 H        -1.991520        -0.137829         2.073398
 H        -3.740262         0.279444        -0.390112
 H        -1.075793         0.292611        -1.581930
 H        -2.486741         4.122899        -0.680583
 H        -3.650035         2.892850        -1.364576
 H        -3.278396         2.718458         1.240243
 H        -0.462655         2.955494         0.605112
 H        -1.141801         2.371354         2.228743
