19
Iteration:  1971charge 0 multiplicity 1
 O         0.594710         0.671115         0.513129
 C        -0.792455         0.961835         0.550385
 C        -1.791692        -0.042252         1.052687
 C        -2.787845         0.774571         0.033307
 C        -1.579176         1.068243        -0.796357
 O        -1.565402         2.401617        -1.498678
 C        -2.648151         3.060304        -0.795269
 C        -2.730793         2.308050         0.506049
 C        -1.200097         2.215886         1.145440
 H         1.073309         1.271380        -0.139571
 H        -1.644586        -1.057374         0.532830
 H        -2.128546        -0.236602         2.030521
 H        -3.720147         0.274466        -0.144149
 H        -1.141132         0.310390        -1.477255
 H        -2.357577         4.118843        -0.754213
 H        -3.557529         2.863530        -1.530034
 H        -3.564209         2.666114         1.193909
 H        -0.652810         3.118233         0.785335
 H        -1.227382         2.168439         2.195444
