19
Iteration:  1008charge 0 multiplicity 1
 O         0.575118         0.582181         0.696311
 C        -0.726186         0.979933         0.564041
 C        -1.875864        -0.014832         0.965165
 C        -2.752604         0.772603        -0.017597
 C        -1.531983         1.077055        -0.893555
 O        -1.597878         2.468043        -1.517343
 C        -2.677532         2.986841        -0.806127
 C        -2.678485         2.294979         0.570696
 C        -1.218217         2.306790         1.105979
 H         1.019275         0.474663        -0.162182
 H        -1.681943        -1.059173         0.607473
 H        -2.016916        -0.018701         2.038680
 H        -3.688804         0.225687        -0.190647
 H        -1.209151         0.420109        -1.741823
 H        -2.509151         4.106247        -0.676668
 H        -3.674462         2.980391        -1.373824
 H        -3.418122         2.681415         1.228034
 H        -0.612743         3.057926         0.669709
 H        -1.128325         2.310120         2.156868
