19
Iteration:  1121
 O         0.556047         0.654965         0.634850
 C        -0.777764         0.967426         0.574642
 C        -1.849582         0.034350         0.976110
 C        -2.698104         0.824096        -0.004142
 C        -1.452005         1.119812        -0.883328
 O        -1.659572         2.315603        -1.545514
 C        -2.623597         3.042883        -0.808663
 C        -2.694373         2.285998         0.527715
 C        -1.224294         2.252177         1.167774
 H         0.649297        -0.223481         0.264557
 H        -1.355816        -0.874531         0.491907
 H        -2.180627        -0.089173         1.971770
 H        -3.716238         0.534287        -0.251611
 H        -1.250639         0.430314        -1.729910
 H        -2.365866         4.127369        -0.725227
 H        -3.679085         3.034100        -1.359022
 H        -3.398029         2.570688         1.387325
 H        -0.684366         3.236307         0.880073
 H        -1.338954         2.227084         2.315605
