19
Iteration:   908charge 0 multiplicity 1
 O         0.635192         0.882592         0.438504
 C        -0.770260         1.040057         0.485291
 C        -1.912585        -0.077771         0.895481
 C        -2.811534         0.826829         0.086553
 C        -1.573268         0.896327        -0.827093
 O        -1.553315         2.199415        -1.556217
 C        -2.455823         3.098396        -0.709211
 C        -2.735716         2.307006         0.600013
 C        -1.355284         2.269821         1.221848
 H         0.905455         0.304509         1.138649
 H        -1.675798        -0.987386         0.469924
 H        -2.213038        -0.229658         1.939728
 H        -3.731596         0.644552        -0.538948
 H        -1.456414         0.082067        -1.524370
 H        -1.739801         3.914343        -0.456449
 H        -3.268771         3.502110        -1.414395
 H        -3.429061         2.712654         1.278870
 H        -0.803650         3.093417         0.942567
 H        -1.338297         2.146448         2.280185
