19
Iteration:  2456
 O         0.643865         0.738936         0.619052
 C        -0.743445         0.935926         0.465890
 C        -1.836336        -0.039571         0.961727
 C        -2.743605         0.827013         0.110982
 C        -1.520352         0.957274        -0.899070
 O        -1.742295         2.231714        -1.597441
 C        -2.553315         3.139579        -0.740181
 C        -2.649175         2.286492         0.521471
 C        -1.307874         2.277857         1.217499
 H         1.068083         1.479847         0.104888
 H        -1.753301        -0.921551         0.469357
 H        -1.953095        -0.212503         2.022706
 H        -3.794023         0.648747        -0.017538
 H        -1.244191         0.259089        -1.704931
 H        -2.169568         4.174972        -0.651673
 H        -3.532047         3.320782        -1.358192
 H        -3.548876         2.678748         1.095876
 H        -0.696922         3.206583         1.060153
 H        -1.367538         2.031099         2.248735
