19
Iteration:  4103
 O         0.590688         0.674247         0.564588
 C        -0.745958         1.028610         0.527750
 C        -1.853390        -0.054697         1.002420
 C        -2.847572         0.836237         0.067654
 C        -1.572726         0.988552        -0.884518
 O        -1.571606         2.278913        -1.609594
 C        -2.593675         3.086101        -0.810339
 C        -2.709561         2.361352         0.611883
 C        -1.236023         2.218793         1.187139
 H         1.099825         1.472867         0.426640
 H        -1.687367        -0.949289         0.433944
 H        -1.685482        -0.243086         2.088481
 H        -3.706287         0.359714        -0.418668
 H        -1.366530         0.198507        -1.579407
 H        -2.201835         4.066877        -0.471628
 H        -3.502176         3.252869        -1.278792
 H        -3.465837         2.587406         1.282100
 H        -0.589988         3.102798         0.883872
 H        -1.310651         2.136971         2.201563
