19
Iteration:  1832
 O         0.619873         0.725572         0.401954
 C        -0.743543         1.002461         0.460453
 C        -1.914212        -0.060047         0.978905
 C        -2.782134         0.773122         0.101453
 C        -1.521231         0.950907        -0.831089
 O        -1.591171         2.346514        -1.437558
 C        -2.553095         3.062649        -0.810561
 C        -2.727797         2.321472         0.565210
 C        -1.271195         2.350914         1.144225
 H         1.025507         0.413721         1.247312
 H        -1.652489        -1.046734         0.495385
 H        -2.115582        -0.263637         2.035010
 H        -3.671217         0.185651        -0.296088
 H        -1.269428         0.092614        -1.485064
 H        -2.173621         4.081994        -0.659631
 H        -3.541097         3.087198        -1.279484
 H        -3.486570         2.781857         1.305255
 H        -0.806202         3.267771         0.903445
 H        -1.422861         2.253760         2.265612
