19
Iteration:  3304charge 0 multiplicity 1
 O         0.601611         0.666200         0.569690
 C        -0.732221         0.931338         0.480099
 C        -1.866593        -0.088162         0.986317
 C        -2.703426         0.787062         0.072704
 C        -1.515727         1.024069        -0.914167
 O        -1.633908         2.340946        -1.470794
 C        -2.754311         3.145366        -0.746283
 C        -2.640113         2.295484         0.547093
 C        -1.252783         2.279301         1.090042
 H         1.161970         1.378010         0.129228
 H        -1.748544        -1.061284         0.616294
 H        -2.072636        -0.226865         2.048450
 H        -3.787181         0.583030        -0.106427
 H        -0.938275         0.296812        -1.588022
 H        -2.386342         4.098943        -0.632750
 H        -3.679126         3.147341        -1.328037
 H        -3.408604         2.580563         1.305036
 H        -0.698994         3.182454         0.810177
 H        -1.159956         2.227978         2.248517
