19
Iteration:  3688charge 0 multiplicity 1
 O         0.613859         0.628065         0.656438
 C        -0.750036         0.999668         0.458636
 C        -1.806379        -0.050842         0.978082
 C        -2.821697         0.812609         0.011350
 C        -1.558109         1.054585        -0.885465
 O        -1.658122         2.286661        -1.568920
 C        -2.616580         3.042771        -0.775886
 C        -2.681718         2.382104         0.603075
 C        -1.237729         2.278834         1.152199
 H         1.261316         1.256723         0.354774
 H        -1.636005        -0.960054         0.377086
 H        -2.053992        -0.143057         1.997041
 H        -3.818179         0.218829        -0.230780
 H        -1.131088         0.429700        -1.675313
 H        -2.336117         4.059528        -0.882447
 H        -3.626304         3.017739        -1.168357
 H        -3.344161         2.729132         1.374038
 H        -0.617439         3.112440         0.870740
 H        -1.141478         2.221946         2.354265
