19
Iteration:  2884charge 0 multiplicity 1
 O         0.603483         0.753015         0.488510
 C        -0.739224         0.967046         0.501844
 C        -1.796805        -0.096411         0.973002
 C        -2.737047         0.790578         0.065676
 C        -1.552056         1.000787        -0.906539
 O        -1.661465         2.323811        -1.515834
 C        -2.613297         3.084754        -0.826689
 C        -2.673602         2.327900         0.550985
 C        -1.288441         2.324890         1.270406
 H         0.868426         0.026246         1.021791
 H        -1.668439        -1.141741         0.624326
 H        -2.321846         0.028390         1.923972
 H        -3.777052         0.433714        -0.184792
 H        -1.130713         0.284558        -1.705976
 H        -2.145696         4.054462        -0.581632
 H        -3.528125         3.440194        -1.347929
 H        -3.644705         2.503308         1.194873
 H        -0.644571         3.021575         0.882218
 H        -1.088231         2.151297         2.334082
