19
Iteration:   407
 O         0.651708         0.715322         0.710563
 C        -0.757931         1.026102         0.547893
 C        -1.878310        -0.049748         0.878311
 C        -2.806775         0.836947         0.092664
 C        -1.615242         1.004341        -0.921205
 O        -1.682053         2.247722        -1.543847
 C        -2.497436         3.060087        -0.774307
 C        -2.625683         2.298760         0.530516
 C        -1.276166         2.296849         1.126637
 H         1.134186         1.042125        -0.045875
 H        -1.685780        -0.904932         0.272670
 H        -2.196068        -0.255387         1.987843
 H        -3.843727         0.466444        -0.202637
 H        -1.236987         0.154879        -1.623455
 H        -2.105840         4.003764        -0.554476
 H        -3.416898         3.139329        -1.324294
 H        -3.462819         2.662778         1.212234
 H        -0.788657         3.195474         0.883476
 H        -1.236999         2.224289         2.241072
