19
Iteration:   375
 O         0.538427         0.461942         0.663794
 C        -0.761874         1.005252         0.497227
 C        -1.796389         0.030318         1.024863
 C        -2.697613         0.791150         0.040649
 C        -1.450798         1.064159        -0.879369
 O        -1.645301         2.425843        -1.485739
 C        -2.727753         3.032132        -0.847543
 C        -2.674238         2.365077         0.538121
 C        -1.238436         2.272615         1.055427
 H         1.155698         1.188966         0.370855
 H        -1.672995        -1.010552         1.014753
 H        -2.140841         0.166378         2.094876
 H        -3.680096         0.415094        -0.375261
 H        -0.997171         0.417421        -1.696369
 H        -2.631247         4.110723        -0.822317
 H        -3.609232         2.728847        -1.455750
 H        -3.403456         2.543977         1.405461
 H        -0.816400         3.104108         0.592705
 H        -1.145122         2.217367         2.146917
