19
Iteration:  1195charge 0 multiplicity 1
 O         0.635588         0.826469         0.613711
 C        -0.773157         1.024816         0.499057
 C        -1.925357        -0.070575         0.963535
 C        -2.706831         0.861424         0.028570
 C        -1.562805         1.031750        -0.944844
 O        -1.610160         2.228525        -1.571681
 C        -2.537271         3.068789        -0.737646
 C        -2.662983         2.291654         0.583445
 C        -1.313693         2.239950         1.234050
 H         0.673889        -0.136606         0.329617
 H        -1.878549        -1.108779         0.374671
 H        -2.187993        -0.280370         1.968493
 H        -3.696795         0.658966        -0.434792
 H        -1.259155         0.259230        -1.764926
 H        -2.022071         4.051080        -0.637980
 H        -3.507264         3.283570        -1.119357
 H        -3.556995         2.673135         1.185440
 H        -0.733736         3.051398         0.942688
 H        -1.263632         2.121811         2.246210
