19
Iteration:  1112
 O         0.544262         0.744848         0.613452
 C        -0.758193         0.951871         0.557837
 C        -1.845261        -0.039072         0.945506
 C        -2.714533         0.815475         0.018990
 C        -1.498038         1.001905        -0.874137
 O        -1.654871         2.314658        -1.593696
 C        -2.617384         3.127640        -0.786420
 C        -2.659955         2.298622         0.577917
 C        -1.251628         2.298743         1.181566
 H         0.824127        -0.148545         0.475612
 H        -1.779325        -1.028145         0.585318
 H        -2.179983        -0.079230         2.012387
 H        -3.615497         0.442515        -0.472215
 H        -1.088515         0.326342        -1.598426
 H        -2.200307         4.137044        -0.674222
 H        -3.626587         3.081311        -1.406066
 H        -3.530754         2.605982         1.180869
 H        -0.367177         3.038153         1.065486
 H        -1.342684         2.038497         2.333336
