19
Iteration:   507
 O         0.636230         0.553595         0.747276
 C        -0.719228         0.984702         0.497655
 C        -1.874922        -0.033617         0.962247
 C        -2.743140         0.848808        -0.011571
 C        -1.549339         1.037227        -0.916022
 O        -1.651570         2.400176        -1.518077
 C        -2.723490         2.984166        -0.785052
 C        -2.708852         2.341735         0.576002
 C        -1.100630         2.295636         1.064366
 H         1.248500         1.333923         0.679869
 H        -1.844059        -1.050710         0.431900
 H        -2.381833        -0.098532         1.957854
 H        -3.719520         0.682833        -0.354131
 H        -1.339813         0.289791        -1.679244
 H        -2.656722         4.017330        -0.958518
 H        -3.661887         2.720161        -1.204210
 H        -3.564197         2.584199         1.377339
 H        -0.727796         3.191400         0.603366
 H        -0.882567         2.380520         2.107292
