19
Iteration:  3990charge 0 multiplicity 1
 O         0.560461         0.632140         0.565601
 C        -0.791161         0.935526         0.591551
 C        -1.789118        -0.004940         1.000363
 C        -2.802444         0.833360         0.015613
 C        -1.525347         1.037595        -0.911378
 O        -1.600584         2.296209        -1.558449
 C        -2.630149         3.090536        -0.726777
 C        -2.690542         2.370420         0.550902
 C        -1.239880         2.233784         1.133239
 H         0.996579         1.470632         0.429472
 H        -1.511105        -1.059072         0.668264
 H        -1.925003         0.096977         2.095907
 H        -3.781092         0.370727        -0.291046
 H        -1.163881         0.273610        -1.648449
 H        -2.208830         4.109458        -0.699428
 H        -3.510742         3.145343        -1.246712
 H        -3.714021         2.426413         1.051109
 H        -0.632850         3.111352         0.683840
 H        -1.101202         2.060671         2.274869
