19
Iteration:  4924
 O         0.583614         0.536333         0.649979
 C        -0.722059         0.924421         0.476812
 C        -1.778039         0.004315         0.952805
 C        -2.738982         0.834405         0.014242
 C        -1.581517         1.032743        -0.951242
 O        -1.698836         2.331788        -1.526839
 C        -2.585159         3.065585        -0.787923
 C        -2.692255         2.357771         0.567811
 C        -1.242792         2.367018         1.212705
 H         1.193934         1.232546         0.442543
 H        -1.596874        -1.092466         0.491503
 H        -2.222633         0.023628         2.011614
 H        -3.598529         0.509467        -0.598752
 H        -1.376953         0.104766        -1.567884
 H        -2.076165         3.977247        -0.518205
 H        -3.678687         2.992341        -1.184198
 H        -3.536525         2.690530         1.216583
 H        -0.644143         3.175670         0.796576
 H        -1.346824         2.276226         2.392427
