19
Iteration:  1104
 O         0.643459         0.808130         0.627508
 C        -0.807781         0.987020         0.481072
 C        -1.885964        -0.122084         0.945861
 C        -2.755265         0.809532         0.013309
 C        -1.540751         1.004390        -0.884728
 O        -1.645069         2.300793        -1.596656
 C        -2.579306         3.109615        -0.759844
 C        -2.651896         2.345397         0.529975
 C        -1.249314         2.257363         1.236660
 H         0.810941        -0.140139         0.589059
 H        -1.992863        -1.142710         0.632030
 H        -2.050745        -0.092297         2.096256
 H        -3.684654         0.427387        -0.450668
 H        -1.189539         0.121144        -1.409365
 H        -2.148767         4.093280        -0.647610
 H        -3.527667         3.265003        -1.212400
 H        -3.483646         2.602023         1.121173
 H        -0.621127         3.117213         0.992290
 H        -1.255908         2.140666         2.317713
