19
Iteration:  4128charge 0 multiplicity 1
 O         0.594621         0.640329         0.596843
 C        -0.745768         1.059938         0.472234
 C        -1.899655        -0.106480         0.946553
 C        -2.761348         0.841863         0.075449
 C        -1.522802         0.996155        -0.896425
 O        -1.637987         2.266274        -1.513973
 C        -2.600482         3.043274        -0.789633
 C        -2.617558         2.343324         0.547031
 C        -1.276892         2.337957         1.180921
 H         1.140690         1.384618         0.207235
 H        -1.725567        -1.111420         0.545235
 H        -1.901418        -0.069825         2.036714
 H        -3.726023         0.573273        -0.328683
 H        -1.462679         0.184098        -1.692957
 H        -2.374202         4.015536        -0.408299
 H        -3.499985         3.151993        -1.218572
 H        -3.498176         2.687542         1.155501
 H        -0.609339         3.280429         0.967287
 H        -1.369908         2.019715         2.251215
