19
Iteration:  1598
 O         0.692170         0.590035         0.527399
 C        -0.683116         0.994947         0.496485
 C        -1.853224         0.035306         0.922633
 C        -2.837009         0.770716         0.012579
 C        -1.566368         1.066153        -0.892369
 O        -1.565125         2.332414        -1.466844
 C        -2.675882         3.058452        -0.766159
 C        -2.759915         2.331796         0.532123
 C        -1.274140         2.301296         1.170830
 H         1.014400         0.555188         1.453452
 H        -1.484590        -1.001949         0.844127
 H        -2.177922         0.052831         2.030355
 H        -3.761146         0.451662        -0.275279
 H        -1.336381         0.164559        -1.474384
 H        -2.238108         4.016001        -0.648181
 H        -3.540181         3.013182        -1.537769
 H        -3.521484         2.642799         1.200506
 H        -0.812886         3.103613         0.739125
 H        -1.190395         2.358488         2.251988
