19
Iteration:   743
 O         0.629682         0.674776         0.438141
 C        -0.753028         1.019515         0.460450
 C        -1.908345        -0.032969         1.015090
 C        -2.773289         0.828068         0.040057
 C        -1.557198         0.998678        -0.870819
 O        -1.542463         2.263458        -1.538920
 C        -2.478584         3.045937        -0.816301
 C        -2.768362         2.256188         0.565126
 C        -1.358817         2.313310         1.326976
 H         1.104448         1.505369         0.395818
 H        -1.796741        -1.020392         0.835769
 H        -2.126190        -0.035410         2.126547
 H        -3.884628         0.607680        -0.243522
 H        -1.217850         0.300592        -1.690128
 H        -1.986387         3.981600        -0.432475
 H        -3.405893         3.334703        -1.226085
 H        -3.702474         2.629000         1.025349
 H        -0.936540         3.261000         1.044352
 H        -1.084277         2.090025         2.396271
