19
Iteration:  4823charge 0 multiplicity 1
 O         0.591386         0.537568         0.646412
 C        -0.762168         0.996978         0.506996
 C        -1.889284         0.019015         0.932263
 C        -2.755140         0.839809         0.053279
 C        -1.487169         1.039436        -0.858846
 O        -1.697593         2.330408        -1.670423
 C        -2.601941         3.078531        -0.768366
 C        -2.643051         2.310386         0.557158
 C        -1.227365         2.254548         1.204060
 H         1.105740         1.378178         0.428019
 H        -1.507922        -0.922806         0.643422
 H        -2.040257        -0.007070         2.033958
 H        -3.762356         0.576388        -0.311278
 H        -1.371456         0.264019        -1.590461
 H        -2.291915         4.135845        -0.534479
 H        -3.702487         3.186920        -1.132943
 H        -3.281012         2.537323         1.327752
 H        -0.719975         3.184294         1.040053
 H        -1.153185         2.125837         2.229816
