19
Iteration:  2883charge 0 multiplicity 1
 O         0.601825         0.750107         0.495488
 C        -0.738795         0.968922         0.494875
 C        -1.783904        -0.099029         0.970235
 C        -2.737160         0.791978         0.060480
 C        -1.548591         0.987656        -0.905899
 O        -1.659826         2.317234        -1.515843
 C        -2.625169         3.094662        -0.820693
 C        -2.680512         2.332709         0.550115
 C        -1.287677         2.322545         1.277869
 H         0.890305        -0.017340         1.013423
 H        -1.650759        -1.141227         0.637486
 H        -2.330518         0.071295         1.947531
 H        -3.778023         0.455660        -0.207459
 H        -1.169941         0.325941        -1.697702
 H        -2.129198         4.112364        -0.633280
 H        -3.540933         3.477905        -1.347343
 H        -3.621023         2.480611         1.179686
 H        -0.644995         3.051988         0.864032
 H        -1.089659         2.136585         2.314227
