19
Iteration:  2457
 O         0.646516         0.736384         0.613984
 C        -0.743718         0.933705         0.478209
 C        -1.834687        -0.034237         0.961232
 C        -2.749621         0.823749         0.107031
 C        -1.519065         0.965956        -0.910186
 O        -1.736930         2.225043        -1.595414
 C        -2.555942         3.143324        -0.739169
 C        -2.655834         2.291791         0.518732
 C        -1.305170         2.279584         1.221313
 H         1.072968         1.495777         0.105062
 H        -1.750416        -0.952431         0.485468
 H        -1.943918        -0.213347         2.010128
 H        -3.788856         0.664151         0.015971
 H        -1.254832         0.243385        -1.736363
 H        -2.179478         4.143979        -0.639195
 H        -3.521034         3.285124        -1.328467
 H        -3.584469         2.691077         1.067377
 H        -0.705705         3.182585         1.060060
 H        -1.344584         2.041906         2.291395
