19
Iteration:  3039
 O         0.680068         0.695870         0.536986
 C        -0.730992         0.980901         0.456583
 C        -1.892092         0.006116         0.893736
 C        -2.786125         0.864716         0.054359
 C        -1.590676         1.042066        -0.902980
 O        -1.561999         2.256283        -1.539496
 C        -2.545636         3.034995        -0.688463
 C        -2.855387         2.234899         0.620120
 C        -1.253948         2.303521         1.264001
 H         1.065411         1.285070        -0.202766
 H        -1.609715        -0.947607         0.438658
 H        -2.071151        -0.043185         1.915917
 H        -3.693753         0.365535        -0.270853
 H        -1.458350         0.181007        -1.599013
 H        -2.247222         4.002574        -0.496413
 H        -3.476530         3.140720        -1.334517
 H        -3.631544         2.605076         1.387030
 H        -0.876128         3.134244         0.827668
 H        -0.845225         2.251175         2.283053
