19
Iteration:  3787
 O         0.623008         0.682977         0.571515
 C        -0.779102         0.994574         0.521659
 C        -1.814424        -0.019552         0.984947
 C        -2.711473         0.908764        -0.004830
 C        -1.627662         0.952240        -0.876465
 O        -1.620288         2.247506        -1.535132
 C        -2.596690         3.070743        -0.746850
 C        -2.700730         2.324020         0.564834
 C        -1.262289         2.263175         1.171914
 H         1.037066         1.465786         0.219562
 H        -1.778340        -0.970756         0.396583
 H        -1.955054        -0.291136         2.042058
 H        -3.662539         0.622109        -0.639666
 H        -1.366575         0.104693        -1.555880
 H        -2.156934         4.049206        -0.692128
 H        -3.547650         3.191323        -1.195798
 H        -3.528365         2.726633         1.125818
 H        -0.714069         3.186400         1.244576
 H        -1.276985         1.915573         2.365116
