19
Iteration:  2006charge 0 multiplicity 1
 O         0.612407         0.687798         0.495795
 C        -0.780542         1.041963         0.500051
 C        -1.840743        -0.036590         0.970770
 C        -2.796241         0.777736         0.085302
 C        -1.553076         1.042954        -0.903918
 O        -1.624746         2.264090        -1.545135
 C        -2.513594         3.054760        -0.706241
 C        -2.741518         2.320365         0.514119
 C        -1.253703         2.256229         1.209093
 H         0.996303         1.604669         0.584105
 H        -1.591431        -1.047190         0.586690
 H        -2.071681        -0.105174         2.038027
 H        -3.777940         0.352713        -0.184150
 H        -1.181345         0.244188        -1.536714
 H        -2.215459         4.069016        -0.703271
 H        -3.582194         3.083065        -1.221365
 H        -3.532740         2.684223         1.230049
 H        -0.694419         3.213958         0.967871
 H        -1.213838         1.996086         2.266662
