19
Iteration:  2745
 O         0.664774         0.676735         0.550907
 C        -0.759993         1.005430         0.536292
 C        -1.838894        -0.011728         0.922572
 C        -2.833526         0.838243         0.024526
 C        -1.568008         0.980343        -0.861009
 O        -1.644584         2.243644        -1.531952
 C        -2.512019         3.013093        -0.733883
 C        -2.668676         2.333031         0.545064
 C        -1.317340         2.305617         1.182506
 H         1.037898         1.515062         0.326214
 H        -1.557998        -1.026659         0.565403
 H        -1.997220         0.079593         1.919310
 H        -3.874008         0.582670        -0.305297
 H        -1.438373         0.255681        -1.690754
 H        -2.380910         4.033738        -0.532779
 H        -3.494579         3.042519        -1.234665
 H        -3.387682         2.648974         1.281877
 H        -0.703617         3.123138         0.899460
 H        -1.357737         2.262235         2.347879
