19
Iteration:   233charge 0 multiplicity 1
 O         0.592375         0.661269         0.507663
 C        -0.715921         0.995140         0.464766
 C        -1.883064         0.035845         1.005058
 C        -2.715490         0.847167         0.055551
 C        -1.558853         1.042836        -0.902868
 O        -1.540717         2.291562        -1.454055
 C        -2.637315         3.066097        -0.795820
 C        -2.714613         2.256886         0.570076
 C        -1.257539         2.299978         1.108662
 H         0.830551         0.396066         1.416771
 H        -1.782016        -0.895468         0.612909
 H        -2.084574        -0.121329         2.061006
 H        -3.759756         0.518065        -0.309990
 H        -1.368231         0.277783        -1.754123
 H        -2.476441         4.180909        -0.880409
 H        -3.637726         2.868392        -1.349200
 H        -3.413661         2.527223         1.425936
 H        -0.827633         3.254561         0.901108
 H        -1.320846         2.043260         2.221043
