19
Iteration:  1560
 O         0.572942         0.777391         0.410595
 C        -0.854480         0.986123         0.539611
 C        -1.857094        -0.119217         0.985252
 C        -2.804809         0.836500        -0.001354
 C        -1.544187         1.028689        -0.839119
 O        -1.492222         2.252836        -1.557079
 C        -2.537649         3.042489        -0.780369
 C        -2.675664         2.328564         0.610375
 C        -1.297528         2.261402         1.250018
 H         0.951640         0.981397         1.254348
 H        -1.613305        -1.085531         0.629691
 H        -2.282633         0.054950         1.918690
 H        -3.865998         0.380701        -0.219080
 H        -1.231933         0.290996        -1.574322
 H        -2.324973         4.162152        -0.667944
 H        -3.580773         2.990750        -1.245059
 H        -3.522657         2.824899         1.172335
 H        -0.462830         2.979667         0.819291
 H        -1.312245         2.378698         2.347069
