19
Iteration:  3517
 O         0.571378         0.699130         0.572264
 C        -0.788974         1.010103         0.420742
 C        -1.812469        -0.128916         0.935328
 C        -2.830753         0.809836         0.068176
 C        -1.563468         1.071731        -0.864979
 O        -1.636830         2.278577        -1.579073
 C        -2.563743         3.053395        -0.787557
 C        -2.595048         2.294964         0.638140
 C        -1.278115         2.299937         1.211117
 H         1.161564         1.506684         0.466757
 H        -1.545195        -1.206624         0.600538
 H        -2.053624        -0.163932         2.086823
 H        -3.820697         0.493786        -0.333524
 H        -1.422751         0.233123        -1.509930
 H        -2.095778         4.077815        -0.669825
 H        -3.503136         3.085897        -1.241740
 H        -3.417765         2.753113         1.231302
 H        -0.714691         3.379298         1.043027
 H        -1.167816         2.079091         2.253808
