19
Iteration:  4847charge 0 multiplicity 1
 O         0.591667         0.629959         0.584042
 C        -0.770246         0.941677         0.514179
 C        -1.819288        -0.061347         0.965166
 C        -2.785814         0.827872         0.027493
 C        -1.576444         1.085582        -0.864496
 O        -1.630104         2.290244        -1.517485
 C        -2.516878         3.056688        -0.756708
 C        -2.738560         2.377880         0.487154
 C        -1.227150         2.278268         1.167829
 H         1.099792         1.327663         0.118278
 H        -1.733855        -1.155895         0.705309
 H        -2.176916        -0.111188         2.022122
 H        -3.729316         0.359304        -0.156650
 H        -1.465751         0.302007        -1.623844
 H        -2.172850         4.075277        -0.549033
 H        -3.552004         3.098444        -1.279051
 H        -3.435899         2.767565         1.162755
 H        -0.666466         3.122388         1.022891
 H        -1.153877         2.226632         2.297370
