19
Iteration:   211
 O         0.642852         0.626961         0.617635
 C        -0.810323         0.935371         0.580848
 C        -1.908303        -0.103349         0.897171
 C        -2.745593         0.820046         0.037591
 C        -1.506993         1.082870        -0.815591
 O        -1.611961         2.424746        -1.511221
 C        -2.750879         2.964289        -0.778682
 C        -2.656523         2.356607         0.526709
 C        -1.118528         2.343832         1.008889
 H         0.747773         0.314790         1.538110
 H        -1.534132        -0.985235         0.672074
 H        -2.187771        -0.172058         1.948823
 H        -3.846497         0.599199        -0.328240
 H        -1.090650         0.438123        -1.705617
 H        -2.621279         4.063742        -0.545410
 H        -3.814314         2.918627        -1.197045
 H        -3.462628         2.629183         1.293557
 H        -0.596627         2.935212         0.307499
 H        -0.933628         2.457682         2.100888
