19
Iteration:  3912charge 0 multiplicity 1
 O         0.625275         0.595370         0.634180
 C        -0.715002         0.959137         0.473069
 C        -1.808586         0.033300         0.957838
 C        -2.786927         0.854386         0.031440
 C        -1.575898         1.033465        -0.905028
 O        -1.619163         2.275628        -1.597125
 C        -2.643709         3.098874        -0.699053
 C        -2.692564         2.296034         0.583327
 C        -1.274816         2.278815         1.154332
 H         1.230889         1.288210         0.275716
 H        -1.813632        -1.033456         0.602256
 H        -2.147283         0.014579         2.001116
 H        -3.641433         0.410877        -0.426574
 H        -1.163045         0.198006        -1.515454
 H        -2.258962         4.097428        -0.475862
 H        -3.473773         3.144299        -1.330431
 H        -3.498985         2.479982         1.351988
 H        -0.741934         3.255513         0.708513
 H        -1.433986         2.373105         2.338112
