19
Iteration:  1703
 O         0.587709         0.738124         0.348711
 C        -0.749154         0.994270         0.523090
 C        -1.960075        -0.056302         0.965086
 C        -2.807717         0.824170         0.075009
 C        -1.472521         1.000626        -0.838987
 O        -1.524106         2.285016        -1.489861
 C        -2.574503         3.022759        -0.777305
 C        -2.713552         2.234205         0.580809
 C        -1.302311         2.366489         1.207426
 H         1.161005         1.033225         1.052591
 H        -1.913871        -1.098695         0.605959
 H        -2.202470         0.020097         2.052780
 H        -3.823692         0.391052        -0.385708
 H        -1.161901         0.100245        -1.414570
 H        -2.114066         4.023797        -0.471369
 H        -3.330234         3.188999        -1.443390
 H        -3.490033         2.588717         1.317824
 H        -0.677009         3.362163         1.086309
 H        -1.321369         2.203377         2.298914
