19
Iteration:  2541
 O         0.570242         0.599010         0.723701
 C        -0.724687         0.944013         0.486998
 C        -1.801100         0.022905         0.941346
 C        -2.700718         0.802300         0.021677
 C        -1.517009         1.046312        -0.965641
 O        -1.705788         2.310972        -1.536229
 C        -2.712337         2.983614        -0.776689
 C        -2.661826         2.361829         0.602575
 C        -1.206388         2.328253         1.116589
 H         1.032504         1.268750         0.237094
 H        -1.742994        -0.943591         0.385730
 H        -2.058219        -0.021002         2.058051
 H        -3.695085         0.433311        -0.259686
 H        -1.097241         0.328857        -1.614202
 H        -2.551399         4.107158        -0.576922
 H        -3.688351         2.994613        -1.273742
 H        -3.390080         2.769229         1.274383
 H        -0.413805         3.102101         0.739582
 H        -1.155552         2.342289         2.186116
