19
Iteration:  4869charge 0 multiplicity 1
 O         0.572837         0.686675         0.543065
 C        -0.778662         0.960513         0.462331
 C        -1.852304        -0.026452         0.992391
 C        -2.831857         0.869476         0.075326
 C        -1.568467         0.991385        -0.909620
 O        -1.504867         2.269414        -1.488629
 C        -2.554603         3.132366        -0.797654
 C        -2.727219         2.268014         0.612116
 C        -1.275691         2.286191         1.154563
 H         1.252539         1.185352         0.056801
 H        -2.013569        -1.054505         0.469007
 H        -2.070842        -0.379120         2.040509
 H        -3.839240         0.530242        -0.191850
 H        -1.157853         0.122032        -1.457559
 H        -2.139328         4.138031        -0.705341
 H        -3.518211         3.195240        -1.487716
 H        -3.451785         2.407346         1.412285
 H        -0.806250         3.167953         0.913100
 H        -1.091548         2.429431         2.281379
