19
Iteration:  2995
 O         0.629132         0.617542         0.660402
 C        -0.712304         0.959809         0.531999
 C        -1.799760        -0.051765         0.933675
 C        -2.753637         0.827204         0.047975
 C        -1.529404         1.137750        -0.939697
 O        -1.656340         2.350584        -1.634906
 C        -2.703070         3.071102        -0.737175
 C        -2.734161         2.301215         0.642010
 C        -1.203670         2.270566         1.198611
 H         1.093802         0.720578        -0.224601
 H        -1.751182        -1.064639         0.480740
 H        -2.039172        -0.059614         1.947194
 H        -3.647966         0.359004        -0.378629
 H        -1.347171         0.268807        -1.663764
 H        -2.375268         4.051032        -0.653592
 H        -3.676939         3.214463        -1.239232
 H        -3.679539         2.487031         1.314763
 H        -0.589931         3.010762         0.874773
 H        -1.132652         2.153738         2.284378
