19
Iteration:   437charge 0 multiplicity 1
 O         0.568440         0.788533         0.538505
 C        -0.788622         0.998664         0.563860
 C        -1.856407        -0.076850         1.009777
 C        -2.735912         0.858106         0.072545
 C        -1.571802         1.025758        -0.891881
 O        -1.705434         2.177263        -1.651294
 C        -2.397906         3.125910        -0.766024
 C        -2.644965         2.326269         0.513121
 C        -1.349704         2.197323         1.291371
 H         0.932419         1.446845        -0.114043
 H        -1.705489        -1.004866         0.489254
 H        -2.072708        -0.133901         2.169930
 H        -3.699711         0.392723        -0.400012
 H        -1.160628         0.117876        -1.468000
 H        -1.914715         4.083603        -0.510222
 H        -3.292607         3.390543        -1.352577
 H        -3.528248         2.593034         0.963167
 H        -0.690755         3.069873         1.372682
 H        -1.351583         1.945736         2.412103
