19
Iteration:  4844
 O         0.566223         0.634647         0.584803
 C        -0.758599         0.925940         0.518623
 C        -1.801582        -0.077063         1.002904
 C        -2.762228         0.833181        -0.000736
 C        -1.590121         1.081111        -0.913536
 O        -1.649258         2.284028        -1.513125
 C        -2.537396         3.082953        -0.767578
 C        -2.709285         2.362770         0.513434
 C        -1.219394         2.281551         1.205341
 H         1.166783         1.258766         0.190601
 H        -1.807367        -1.069260         0.618501
 H        -2.200796        -0.051053         2.027896
 H        -3.746797         0.355209        -0.175212
 H        -1.328397         0.263721        -1.569305
 H        -2.215728         4.163751        -0.706638
 H        -3.539121         3.181261        -1.325382
 H        -3.488669         2.717698         1.138172
 H        -0.567920         3.191431         0.995813
 H        -1.215849         2.217699         2.231897
