19
Iteration:  3313charge 0 multiplicity 1
 O         0.702111         0.662048         0.559226
 C        -0.697786         0.925670         0.507429
 C        -1.882906        -0.142918         0.938569
 C        -2.757095         0.786370         0.065305
 C        -1.546567         1.039604        -0.859758
 O        -1.633941         2.352998        -1.531821
 C        -2.669303         3.084755        -0.764652
 C        -2.758315         2.309706         0.606573
 C        -1.225432         2.362423         1.142498
 H         1.080850         1.463677         0.065547
 H        -1.933822        -1.114676         0.552438
 H        -2.153912        -0.099924         2.005028
 H        -3.755063         0.461178        -0.255199
 H        -1.433240         0.312469        -1.753086
 H        -2.280698         4.055480        -0.611956
 H        -3.575170         3.007658        -1.340839
 H        -3.555997         2.582665         1.385566
 H        -0.579277         3.162137         0.816473
 H        -1.265384         2.356348         2.341493
