19
Iteration:  4350
 O         0.642554         0.529709         0.624626
 C        -0.723473         1.042616         0.494933
 C        -1.820835         0.019154         0.947531
 C        -2.821368         0.841129         0.013263
 C        -1.548936         1.072736        -0.908937
 O        -1.670945         2.309678        -1.498437
 C        -2.636049         3.053244        -0.746819
 C        -2.707060         2.267000         0.524306
 C        -1.242599         2.327303         1.183299
 H         1.286972         1.242764         0.629798
 H        -1.536085        -0.937820         0.563567
 H        -2.162058        -0.072396         1.965975
 H        -3.659917         0.374069        -0.446805
 H        -1.391459         0.364685        -1.631972
 H        -2.241337         4.038644        -0.670084
 H        -3.598058         2.899238        -1.418393
 H        -3.462082         2.536758         1.295577
 H        -0.627889         3.030123         0.655958
 H        -0.968964         2.430009         2.223674
