19
Iteration:  1982
 O         0.616995         0.664657         0.455305
 C        -0.762514         1.000834         0.526796
 C        -1.866765        -0.048512         0.942412
 C        -2.743991         0.835902         0.098081
 C        -1.554015         1.039955        -0.866269
 O        -1.511105         2.259729        -1.445751
 C        -2.622077         3.051330        -0.762565
 C        -2.755140         2.259974         0.546673
 C        -1.287859         2.339378         1.200291
 H         0.959904         1.510455         0.090486
 H        -1.532853        -1.077855         0.603436
 H        -2.102635        -0.034925         1.970944
 H        -3.649135         0.553515        -0.404502
 H        -1.572274         0.197612        -1.575021
 H        -2.360264         4.110272        -0.669134
 H        -3.619458         3.018912        -1.383994
 H        -3.614129         2.494567         1.248604
 H        -0.705703         3.185987         0.787411
 H        -1.199069         2.318044         2.231275
