19
Iteration:   504charge 0 multiplicity 1
 O         0.631610         0.575921         0.725068
 C        -0.749302         0.975880         0.498917
 C        -1.882911        -0.072664         0.960926
 C        -2.743562         0.821881        -0.009541
 C        -1.565650         1.045963        -0.896256
 O        -1.630790         2.386257        -1.524067
 C        -2.721511         3.012561        -0.777852
 C        -2.713503         2.340227         0.585452
 C        -1.092276         2.303621         1.065811
 H         1.213689         1.331667         0.698266
 H        -1.768674        -0.989621         0.465691
 H        -2.378776        -0.018226         1.987770
 H        -3.807578         0.595981        -0.397933
 H        -1.164752         0.323426        -1.702539
 H        -2.637929         4.074493        -0.982969
 H        -3.711139         2.678730        -1.198954
 H        -3.410263         2.700617         1.255500
 H        -0.643456         3.165949         0.632700
 H        -0.892276         2.426078         2.176966
