19
Iteration:  4208
 O         0.636883         0.580859         0.626293
 C        -0.816110         0.967507         0.499458
 C        -1.816343        -0.113606         0.987048
 C        -2.739951         0.833781         0.048150
 C        -1.561178         1.049548        -0.879760
 O        -1.669349         2.336683        -1.544427
 C        -2.632662         3.077990        -0.799627
 C        -2.610646         2.315700         0.528016
 C        -1.232476         2.373275         1.116252
 H         1.026365         1.478277         0.612174
 H        -1.875872        -1.100432         0.491094
 H        -2.228009        -0.313275         1.971797
 H        -3.735484         0.524923        -0.348239
 H        -1.270786         0.289518        -1.597424
 H        -2.437690         4.093023        -0.568066
 H        -3.567260         2.959568        -1.175998
 H        -3.499503         2.678308         1.167256
 H        -0.603107         3.270495         1.076868
 H        -1.188659         2.202950         2.337179
