19
Iteration:  1156
 O         0.628994         0.587542         0.732178
 C        -0.744451         0.880081         0.491146
 C        -1.857954        -0.023417         0.987989
 C        -2.711913         0.866014         0.011180
 C        -1.475860         1.095970        -0.951566
 O        -1.600334         2.410175        -1.434733
 C        -2.746752         3.046436        -0.788343
 C        -2.711273         2.323557         0.530438
 C        -1.246173         2.330701         1.034665
 H         0.967802         0.009464         0.059291
 H        -1.622344        -1.006603         0.636828
 H        -2.120164        -0.193355         2.070865
 H        -3.658962         0.409673        -0.273869
 H        -1.435873         0.278269        -1.627819
 H        -2.422559         4.096909        -0.758226
 H        -3.688200         2.862079        -1.524872
 H        -3.444659         2.505916         1.331912
 H        -0.759541         3.303347         0.589818
 H        -1.152794         2.364512         2.233655
