19
Iteration:  2243charge 0 multiplicity 1
 O         0.573748         0.644222         0.560132
 C        -0.783962         1.001142         0.466756
 C        -1.826660        -0.027996         1.064564
 C        -2.798354         0.756198         0.071929
 C        -1.591668         1.025092        -0.974726
 O        -1.539367         2.382287        -1.441788
 C        -2.701681         2.997018        -0.766514
 C        -2.628413         2.293560         0.553698
 C        -1.229318         2.299830         1.101564
 H         1.228507         1.353121         0.400532
 H        -1.666310        -1.122892         0.840889
 H        -1.925519         0.042723         2.097012
 H        -3.741069         0.645269        -0.437682
 H        -1.170013         0.315338        -1.684036
 H        -2.511996         4.115205        -0.840766
 H        -3.588906         2.588830        -1.316781
 H        -3.347909         2.766398         1.197650
 H        -0.755064         3.217243         0.672000
 H        -1.167177         2.331299         2.247466
