19
Iteration:  4740charge 0 multiplicity 1
 O         0.603752         0.591892         0.526108
 C        -0.766977         0.999794         0.497695
 C        -1.902732         0.006696         0.985360
 C        -2.789897         0.823659         0.069755
 C        -1.559774         1.072748        -0.853093
 O        -1.567178         2.317419        -1.499585
 C        -2.608653         3.050352        -0.770163
 C        -2.679195         2.346917         0.491250
 C        -1.266983         2.257399         1.190340
 H         1.211450         1.183058         0.082317
 H        -1.707362        -1.010945         0.563458
 H        -1.961595        -0.124195         2.074396
 H        -3.595484         0.484437        -0.483461
 H        -1.212380         0.260239        -1.439382
 H        -2.251577         4.036243        -0.575508
 H        -3.559932         2.943465        -1.365483
 H        -3.374221         2.638269         1.293461
 H        -0.663565         3.145077         0.999245
 H        -1.396955         2.022387         2.366182
