19
Iteration:  4387charge 0 multiplicity 1
 O         0.629159         0.688218         0.614580
 C        -0.753077         0.941963         0.516838
 C        -1.832890        -0.016938         0.972491
 C        -2.785824         0.808546         0.065170
 C        -1.619889         1.051522        -0.958005
 O        -1.651826         2.298498        -1.550237
 C        -2.544494         3.076697        -0.828133
 C        -2.652404         2.337768         0.561173
 C        -1.279087         2.183307         1.238999
 H         1.161237         1.473925         0.560529
 H        -1.777490        -1.031253         0.483180
 H        -1.914866        -0.257743         2.046071
 H        -3.822904         0.539886        -0.297965
 H        -1.313209         0.248033        -1.755330
 H        -2.265710         4.136010        -0.566590
 H        -3.599448         3.088717        -1.298274
 H        -3.426831         2.885966         1.044748
 H        -0.784118         3.067017         0.780954
 H        -1.097520         2.280541         2.425312
