19
Iteration:  1613charge 0 multiplicity 1
 O         0.594243         0.576540         0.590600
 C        -0.779361         0.984040         0.495959
 C        -1.800512        -0.023423         1.014428
 C        -2.701515         0.859733         0.026058
 C        -1.494351         1.034438        -0.911267
 O        -1.663025         2.359346        -1.557399
 C        -2.628521         3.062522        -0.768314
 C        -2.698668         2.256482         0.574052
 C        -1.272013         2.360892         1.101803
 H         0.842052         0.539665         1.503249
 H        -1.767824        -1.048232         0.481560
 H        -1.949760        -0.150517         2.093606
 H        -3.651556         0.389256        -0.436092
 H        -1.214147         0.426292        -1.762875
 H        -2.407340         4.142140        -0.661549
 H        -3.577765         3.030742        -1.156968
 H        -3.571413         2.599153         1.248121
 H        -0.640032         3.265026         0.803944
 H        -1.275998         2.235318         2.230732
