19
Iteration:  3940
 O         0.540204         0.685614         0.584931
 C        -0.752751         0.985894         0.480841
 C        -1.800936        -0.074481         0.956523
 C        -2.790248         0.833173         0.064829
 C        -1.603444         1.060470        -0.821830
 O        -1.630353         2.267383        -1.594525
 C        -2.581505         3.103271        -0.824749
 C        -2.620141         2.325577         0.589969
 C        -1.224182         2.212149         1.257537
 H         1.036082         1.482734         0.219461
 H        -1.569715        -1.049751         0.570053
 H        -2.179311        -0.065795         1.987688
 H        -3.589885         0.411640        -0.607993
 H        -1.372419         0.222736        -1.462814
 H        -2.196418         4.146197        -0.717462
 H        -3.559813         3.209640        -1.473179
 H        -3.387036         2.628895         1.251830
 H        -0.773284         3.096162         0.929052
 H        -1.303446         2.130920         2.295869
