19
Iteration:  4152
 O         0.635557         0.580963         0.625639
 C        -0.768940         0.983850         0.582161
 C        -1.833432         0.019578         0.953843
 C        -2.743319         0.811770         0.013556
 C        -1.516871         1.115309        -0.876552
 O        -1.668236         2.292365        -1.552825
 C        -2.613096         3.121027        -0.809894
 C        -2.691800         2.263018         0.576314
 C        -1.251056         2.253686         1.154064
 H         0.907840         1.334540         0.024586
 H        -1.680921        -1.047957         0.656483
 H        -2.211702         0.131458         1.979406
 H        -3.715986         0.338233        -0.257574
 H        -1.269121         0.278607        -1.601412
 H        -2.487706         4.181671        -0.609219
 H        -3.563240         3.044110        -1.282287
 H        -3.618945         2.576055         1.231497
 H        -0.677269         2.987211         0.533787
 H        -0.950568         2.198094         2.315498
