19
Iteration:  1628
 O         0.547685         0.634029         0.618495
 C        -0.745748         1.020229         0.514358
 C        -1.870066        -0.062218         0.915962
 C        -2.683684         0.760789         0.051870
 C        -1.471599         1.134421        -0.881013
 O        -1.720454         2.309385        -1.589402
 C        -2.696985         3.067410        -0.756244
 C        -2.617621         2.320265         0.510741
 C        -1.172653         2.252163         1.161901
 H         0.674069         0.604950         1.606240
 H        -1.500793        -0.926664         0.492642
 H        -2.258928         0.038422         1.951786
 H        -3.752839         0.531561        -0.275418
 H        -1.179073         0.227053        -1.443719
 H        -2.254453         4.093071        -0.642030
 H        -3.696779         3.197031        -1.342329
 H        -3.352956         2.528088         1.235964
 H        -0.524273         3.179712         0.769719
 H        -1.106360         2.332154         2.236543
