19
Iteration:  4531
 O         0.631507         0.616407         0.614398
 C        -0.735430         0.966039         0.485436
 C        -1.913451         0.043522         0.957047
 C        -2.750191         0.798144         0.039014
 C        -1.547600         0.984888        -0.944369
 O        -1.690346         2.312693        -1.610737
 C        -2.547081         3.115978        -0.743013
 C        -2.693183         2.301420         0.540015
 C        -1.251300         2.287152         1.245560
 H         1.167054         1.456464         0.572924
 H        -1.680940        -0.983413         0.629282
 H        -2.040882        -0.160131         2.038244
 H        -3.765844         0.519973        -0.108082
 H        -1.178866         0.210841        -1.683865
 H        -2.120079         4.102850        -0.589485
 H        -3.467686         2.924624        -1.287710
 H        -3.464020         2.658695         1.195161
 H        -0.727514         3.195749         1.119255
 H        -1.338596         2.058257         2.367198
