19
Iteration:  2216
 O         0.613804         0.560676         0.609644
 C        -0.688532         0.993668         0.509748
 C        -1.818983         0.014495         0.950416
 C        -2.736340         0.877447         0.099885
 C        -1.494029         1.036409        -0.843075
 O        -1.686430         2.309787        -1.530529
 C        -2.738529         3.055318        -0.782636
 C        -2.748132         2.264241         0.516142
 C        -1.181492         2.322676         1.118756
 H         1.282671         1.252004         0.567733
 H        -1.866719        -0.917779         0.422902
 H        -1.877349        -0.163477         2.085706
 H        -3.607938         0.577170        -0.494549
 H        -1.235586         0.188177        -1.513276
 H        -2.366929         4.044362        -0.622785
 H        -3.659915         3.000012        -1.435787
 H        -3.501405         2.621305         1.262816
 H        -0.710844         3.211121         0.732836
 H        -1.238187         2.302077         2.174189
