19
Iteration:  4432
 O         0.600760         0.621795         0.598573
 C        -0.789987         0.975223         0.573909
 C        -1.809957        -0.011714         0.964781
 C        -2.766583         0.785982         0.011615
 C        -1.594136         1.072535        -0.852739
 O        -1.638648         2.355896        -1.591149
 C        -2.509801         3.072033        -0.804285
 C        -2.719732         2.280130         0.550429
 C        -1.262990         2.299905         1.192004
 H         1.043251         1.190752        -0.042261
 H        -1.521299        -1.081423         0.704867
 H        -2.277525        -0.071143         1.983988
 H        -3.682581         0.231703        -0.342230
 H        -1.290575         0.123756        -1.507385
 H        -2.189786         4.192123        -0.681595
 H        -3.616543         3.153003        -1.145124
 H        -3.512438         2.404392         1.278405
 H        -0.560931         3.142567         0.890384
 H        -1.163353         2.201547         2.386539
