19
Iteration:  2245charge 0 multiplicity 1
 O         0.560545         0.651979         0.556632
 C        -0.777449         1.002321         0.460166
 C        -1.825260        -0.035112         1.064024
 C        -2.792698         0.775850         0.073018
 C        -1.576750         1.000428        -0.959403
 O        -1.545394         2.378396        -1.437947
 C        -2.699594         2.988220        -0.756823
 C        -2.621551         2.280915         0.523147
 C        -1.231995         2.301113         1.103358
 H         1.230949         1.380632         0.361119
 H        -1.753638        -1.096610         0.803462
 H        -1.882889         0.006441         2.174997
 H        -3.769997         0.667212        -0.485583
 H        -1.183465         0.331993        -1.700604
 H        -2.539567         4.130318        -0.769915
 H        -3.544382         2.676488        -1.286797
 H        -3.381144         2.807367         1.278787
 H        -0.699923         3.296001         0.709659
 H        -1.230328         2.362016         2.202349
