19
Iteration:  2174charge 0 multiplicity 1
 O         0.620538         0.672769         0.707726
 C        -0.769383         1.045450         0.452557
 C        -1.803069        -0.008854         0.987146
 C        -2.753515         0.884420         0.062324
 C        -1.567828         1.070663        -0.932497
 O        -1.786244         2.205242        -1.683606
 C        -2.579209         3.096533        -0.719100
 C        -2.634287         2.238272         0.529789
 C        -1.238949         2.237956         1.208149
 H         1.237802         1.347477         0.302085
 H        -1.507659        -0.960607         0.560624
 H        -1.932622        -0.137498         2.080273
 H        -3.751140         0.589925        -0.241610
 H        -1.263328         0.281026        -1.661701
 H        -1.885941         3.857312        -0.504850
 H        -3.655839         3.320465        -1.135194
 H        -3.416146         2.525610         1.157764
 H        -0.696515         3.107466         0.936252
 H        -1.145864         2.061777         2.331146
