19
Iteration:  4879charge 0 multiplicity 1
 O         0.544556         0.673170         0.546748
 C        -0.802073         0.972033         0.495389
 C        -1.865701        -0.081549         0.978473
 C        -2.759296         0.838255         0.022284
 C        -1.580001         1.016722        -0.877843
 O        -1.529262         2.274625        -1.467969
 C        -2.543649         3.069415        -0.767953
 C        -2.722295         2.349766         0.553787
 C        -1.220690         2.316564         1.186548
 H         0.906963         1.343895        -0.051911
 H        -1.700301        -1.091187         0.506603
 H        -2.118548        -0.030508         2.087493
 H        -3.754531         0.424126        -0.110143
 H        -1.426709         0.340060        -1.719084
 H        -2.156929         4.085811        -0.661168
 H        -3.518906         2.960213        -1.389536
 H        -3.518323         2.600674         1.218762
 H        -0.675192         3.138657         0.772194
 H        -1.170657         2.105337         2.276308
