19
Iteration:  4282charge 0 multiplicity 1
 O         0.602541         0.664888         0.584282
 C        -0.740059         0.988353         0.479543
 C        -1.916422        -0.093752         0.968136
 C        -2.747432         0.839921         0.081035
 C        -1.501298         1.068535        -0.846626
 O        -1.638866         2.291341        -1.543042
 C        -2.550640         3.094479        -0.776615
 C        -2.719974         2.296284         0.550897
 C        -1.238687         2.257670         1.171095
 H         1.105060         1.319401         0.083507
 H        -1.554900        -1.021742         0.443555
 H        -2.036980        -0.227267         2.061486
 H        -3.725559         0.635319        -0.397687
 H        -1.511173         0.136663        -1.517421
 H        -2.119784         4.171480        -0.761810
 H        -3.716103         2.961433        -1.171987
 H        -3.677862         2.654200         1.145138
 H        -0.624889         3.209138         0.975735
 H        -1.395236         2.258665         2.226606
