19
Iteration:   177
 O         0.620990         0.535131         0.678700
 C        -0.694791         1.004191         0.443339
 C        -1.789765         0.000889         0.912382
 C        -2.716478         0.812387        -0.034120
 C        -1.566872         1.060238        -0.925525
 O        -1.723561         2.298461        -1.562041
 C        -2.642829         3.062213        -0.744917
 C        -2.707217         2.341391         0.573325
 C        -1.239794         2.336097         1.152931
 H         0.769666         0.612073         1.621990
 H        -1.408908        -0.873945         0.671959
 H        -1.991960         0.137460         1.977199
 H        -3.823563         0.641933        -0.305149
 H        -1.193065         0.293529        -1.723940
 H        -2.253862         4.083394        -0.600572
 H        -3.687059         3.057911        -1.189782
 H        -3.576020         2.715904         1.151850
 H        -0.674229         3.203824         0.999693
 H        -1.043314         2.194803         2.266338
