19
Iteration:  4937charge 0 multiplicity 1
 O         0.569797         0.522008         0.700855
 C        -0.754704         1.055885         0.490687
 C        -1.810736        -0.027048         0.935719
 C        -2.789567         0.819611        -0.001424
 C        -1.548772         1.039483        -0.868578
 O        -1.685800         2.307798        -1.596710
 C        -2.611143         3.123612        -0.701507
 C        -2.629747         2.286739         0.548728
 C        -1.238230         2.293951         1.091723
 H         1.243910         1.235835         0.526199
 H        -1.612802        -1.097219         0.514447
 H        -1.839478        -0.172510         2.050514
 H        -3.794366         0.468109        -0.207831
 H        -1.226791         0.381635        -1.697847
 H        -2.279137         4.161405        -0.706522
 H        -3.588822         3.289860        -1.295523
 H        -3.382302         2.649075         1.312918
 H        -0.735353         3.206575         0.908570
 H        -1.154233         2.304177         2.257990
