19
Iteration:   345charge 0 multiplicity 1
 O         0.594678         0.475253         0.563600
 C        -0.728473         1.077545         0.578197
 C        -1.869398         0.009418         0.925367
 C        -2.718237         0.835536         0.005425
 C        -1.505275         1.016692        -0.837027
 O        -1.585934         2.307192        -1.548402
 C        -2.705315         3.000288        -0.785908
 C        -2.749780         2.299799         0.603274
 C        -1.210607         2.403407         1.134915
 H         1.151763         1.067440         1.061411
 H        -1.601833        -1.067774         0.592009
 H        -2.285638        -0.027973         1.868798
 H        -3.658928         0.605757        -0.412438
 H        -1.190004         0.296542        -1.517349
 H        -2.587440         4.187789        -0.788550
 H        -3.680547         2.982822        -1.436207
 H        -3.495004         2.517598         1.449823
 H        -0.762027         3.352019         0.545765
 H        -0.998387         2.663323         2.175640
