19
Iteration:    85charge 0 multiplicity 1
 O         0.605140         0.665175         0.453379
 C        -0.788110         0.960596         0.500622
 C        -1.839827         0.005962         1.007518
 C        -2.754392         0.775120         0.038209
 C        -1.543429         1.015211        -0.824635
 O        -1.581542         2.345209        -1.480453
 C        -2.593120         3.133880        -0.814918
 C        -2.672162         2.341258         0.494630
 C        -1.281370         2.193689         1.199413
 H         0.907934         0.777860         1.392772
 H        -1.800555        -1.086598         0.588108
 H        -1.997601         0.116250         2.054761
 H        -3.654157         0.413208        -0.376586
 H        -1.400025         0.221965        -1.495464
 H        -2.292966         4.176733        -0.626504
 H        -3.551168         3.010875        -1.491569
 H        -3.575234         2.633453         0.990412
 H        -0.728121         3.200323         1.170707
 H        -1.426789         2.080712         2.282127
