19
Iteration:  1941
 O         0.628260         0.603250         0.700942
 C        -0.705899         0.994634         0.446017
 C        -1.805776         0.013170         0.949669
 C        -2.700664         0.883464        -0.011083
 C        -1.576904         1.098891        -0.919042
 O        -1.643921         2.303877        -1.552456
 C        -2.688162         3.022105        -0.696334
 C        -2.727304         2.272684         0.594114
 C        -1.222832         2.296084         1.117046
 H         1.212407         0.734848        -0.027441
 H        -1.710868        -0.987509         0.446919
 H        -2.243256        -0.067012         1.959910
 H        -3.696994         0.431951        -0.175643
 H        -1.411197         0.224350        -1.549933
 H        -2.414469         4.042854        -0.670062
 H        -3.617028         2.929860        -1.273745
 H        -3.645795         2.492970         1.236656
 H        -0.739009         3.340999         0.883165
 H        -1.163979         2.189745         2.307530
