19
Iteration:   368
 O         0.528592         0.430218         0.624877
 C        -0.761020         1.006437         0.512648
 C        -1.866160         0.072841         1.056356
 C        -2.689870         0.762197         0.010154
 C        -1.449372         1.117203        -0.876929
 O        -1.629983         2.412967        -1.468999
 C        -2.722151         2.974278        -0.807130
 C        -2.661399         2.272338         0.495582
 C        -1.206250         2.362958         1.070071
 H         1.122667         1.221801         0.535148
 H        -1.574589        -1.004180         0.742268
 H        -2.116428         0.105559         2.074737
 H        -3.656475         0.492460        -0.282406
 H        -1.082700         0.547819        -1.660491
 H        -2.725961         4.132322        -0.933238
 H        -3.746005         2.723966        -1.274069
 H        -3.452786         2.563716         1.215143
 H        -0.483811         3.214236         0.687834
 H        -1.203101         2.502618         2.149085
