19
Iteration:  4536charge 0 multiplicity 1
 O         0.592773         0.626149         0.601699
 C        -0.736395         0.954537         0.504483
 C        -1.907814        -0.006465         0.963355
 C        -2.714789         0.832077         0.080114
 C        -1.519996         1.037710        -0.971166
 O        -1.694461         2.290949        -1.596726
 C        -2.521952         3.066534        -0.747686
 C        -2.670367         2.312419         0.531944
 C        -1.286331         2.255152         1.238444
 H         1.064820         1.440621         0.483620
 H        -1.533631        -0.946615         0.524615
 H        -2.080955         0.000637         2.045989
 H        -3.747747         0.429552        -0.177229
 H        -1.278496         0.235800        -1.636975
 H        -2.200023         4.143906        -0.626465
 H        -3.534052         3.158989        -1.258974
 H        -3.371774         2.819166         1.263330
 H        -0.788157         3.313976         1.102646
 H        -1.427551         2.116729         2.275644
