19
Iteration:  1658charge 0 multiplicity 1
 O         0.695636         0.688258         0.585118
 C        -0.727642         0.961130         0.481614
 C        -1.881466        -0.051077         0.922279
 C        -2.682012         0.878065         0.112842
 C        -1.561517         1.038088        -0.916014
 O        -1.655579         2.262358        -1.576195
 C        -2.604857         3.072045        -0.745393
 C        -2.688511         2.321454         0.533327
 C        -1.318383         2.261964         1.164978
 H         0.859419         0.706577         1.518118
 H        -1.786615        -1.043298         0.319007
 H        -2.192451        -0.118824         1.961938
 H        -3.794083         0.603704        -0.232789
 H        -1.529915         0.199842        -1.653850
 H        -2.164947         4.113346        -0.601510
 H        -3.534293         3.211470        -1.193845
 H        -3.611486         2.606272         1.189927
 H        -0.781415         3.269086         0.896396
 H        -1.339743         2.278587         2.276499
