19
Iteration:  2916charge 0 multiplicity 1
 O         0.618694         0.714228         0.441179
 C        -0.743600         0.969441         0.450057
 C        -1.803057        -0.020416         0.902327
 C        -2.771397         0.882452        -0.024587
 C        -1.545199         0.977703        -0.860034
 O        -1.568747         2.215380        -1.469609
 C        -2.678130         3.129291        -0.748416
 C        -2.713364         2.345414         0.654626
 C        -1.285486         2.265517         1.201349
 H         0.862457         1.038443         1.384059
 H        -1.627401        -1.088908         0.637359
 H        -2.104023        -0.055251         1.969727
 H        -3.727449         0.539668        -0.510020
 H        -1.313858         0.088981        -1.380826
 H        -2.250481         4.091579        -0.527484
 H        -3.641400         3.014062        -1.313589
 H        -3.574644         2.529371         1.340035
 H        -0.673224         3.087168         0.973415
 H        -1.078741         2.108016         2.241681
