19
Iteration:  1544charge 0 multiplicity 1
 O         0.594817         0.771070         0.474517
 C        -0.747047         1.009592         0.480000
 C        -1.931423        -0.006588         0.937650
 C        -2.811804         0.822343         0.084727
 C        -1.559579         0.998070        -0.828270
 O        -1.596937         2.242170        -1.511427
 C        -2.493992         3.049986        -0.811894
 C        -2.695015         2.284753         0.535002
 C        -1.266136         2.270544         1.233750
 H         1.129101         0.997043         1.240647
 H        -1.721690        -1.017617         0.379968
 H        -1.973590        -0.392352         2.025411
 H        -3.683783         0.502443        -0.350220
 H        -1.327546         0.157571        -1.533163
 H        -2.076841         4.021201        -0.706623
 H        -3.377974         3.378444        -1.371705
 H        -3.541549         2.602115         1.142518
 H        -0.816649         3.216802         1.107305
 H        -1.331663         1.998254         2.351786
