19
Iteration:  2322
 O         0.674985         0.674450         0.661572
 C        -0.744376         0.975959         0.482490
 C        -1.782463        -0.052629         0.944804
 C        -2.814998         0.792588         0.031439
 C        -1.600093         1.019263        -0.853425
 O        -1.772668         2.276037        -1.666118
 C        -2.538590         3.065673        -0.745403
 C        -2.665979         2.307064         0.550406
 C        -1.261272         2.292925         1.214542
 H         1.132518         1.509427         0.434781
 H        -1.599038        -1.032995         0.648372
 H        -1.776044         0.013547         2.047642
 H        -3.811524         0.480142        -0.444524
 H        -1.313611         0.212040        -1.483123
 H        -2.044432         4.105625        -0.701585
 H        -3.521872         3.433667        -1.143265
 H        -3.582919         2.682258         1.093495
 H        -0.639967         3.285463         1.121156
 H        -1.206905         2.102792         2.272081
