19
Iteration:  2716charge 0 multiplicity 1
 O         0.581042         0.641135         0.669330
 C        -0.781770         0.942876         0.494330
 C        -1.778839        -0.085056         0.972027
 C        -2.742405         0.804888         0.105317
 C        -1.530679         1.018515        -0.900356
 O        -1.664961         2.341003        -1.659707
 C        -2.632159         3.117541        -0.808848
 C        -2.710119         2.347219         0.591838
 C        -1.212081         2.267515         1.130734
 H         1.045039         1.482542         0.806372
 H        -1.560553        -1.159936         0.654129
 H        -1.997623        -0.069255         2.150417
 H        -3.677894         0.536859        -0.309847
 H        -1.605503         0.303967        -1.637034
 H        -2.367218         4.193152        -0.446039
 H        -3.616575         2.977728        -1.356179
 H        -3.383880         2.560615         1.381934
 H        -0.576216         3.081655         0.660459
 H        -1.076829         2.231403         2.190304
