19
Iteration:  2818
 O         0.613373         0.728508         0.706965
 C        -0.752013         0.936391         0.514177
 C        -1.854610        -0.058946         0.913766
 C        -2.782352         0.805856         0.082591
 C        -1.478909         1.053824        -0.865386
 O        -1.701126         2.352949        -1.527677
 C        -2.661257         3.028471        -0.778914
 C        -2.632944         2.327703         0.536740
 C        -1.192569         2.227923         1.075806
 H         0.957465         0.532463        -0.210782
 H        -1.586367        -1.013259         0.450934
 H        -2.177821        -0.124046         2.010588
 H        -3.824174         0.559874        -0.277754
 H        -1.215942         0.193893        -1.572095
 H        -2.320604         4.087133        -0.657054
 H        -3.690393         3.175682        -1.169749
 H        -3.410113         2.863169         1.209855
 H        -0.637957         3.099940         0.719891
 H        -1.248473         2.286935         2.163765
