19
Iteration:  4353charge 0 multiplicity 1
 O         0.623955         0.548116         0.622811
 C        -0.702785         1.046070         0.492188
 C        -1.840452         0.017974         0.957245
 C        -2.790626         0.826289         0.008657
 C        -1.576699         1.076680        -0.888054
 O        -1.664356         2.309342        -1.511722
 C        -2.634123         3.046232        -0.767842
 C        -2.693896         2.274665         0.546432
 C        -1.248707         2.303539         1.174344
 H         1.310617         1.229360         0.669510
 H        -1.554603        -0.911068         0.460897
 H        -2.173768        -0.068344         1.990556
 H        -3.642656         0.379744        -0.539931
 H        -1.370547         0.238135        -1.591563
 H        -2.374554         4.095870        -0.605026
 H        -3.601879         3.007838        -1.398367
 H        -3.358021         2.590228         1.273407
 H        -0.702478         3.093172         0.659516
 H        -0.857651         2.342427         2.304552
