19
Iteration:  2283charge 0 multiplicity 1
 O         0.665201         0.683501         0.600620
 C        -0.728580         1.031455         0.513427
 C        -1.775438        -0.102226         0.980431
 C        -2.862714         0.801207         0.007377
 C        -1.590147         1.013210        -0.857052
 O        -1.720105         2.266116        -1.645874
 C        -2.517852         3.083230        -0.773836
 C        -2.682936         2.304055         0.551427
 C        -1.286493         2.338618         1.289796
 H         1.194051         1.210799        -0.017182
 H        -1.692841        -1.141277         0.510468
 H        -1.848290        -0.180610         2.120462
 H        -3.795317         0.437721        -0.392080
 H        -1.262654         0.197098        -1.589217
 H        -2.105479         4.036069        -0.524006
 H        -3.558107         3.067263        -1.221900
 H        -3.439435         2.801172         1.237157
 H        -0.738941         3.190167         0.907914
 H        -1.362216         2.368651         2.426240
