19
Iteration:  4624charge 0 multiplicity 1
 O         0.604980         0.509272         0.615591
 C        -0.759534         1.005106         0.531788
 C        -1.866712        -0.062219         0.946379
 C        -2.763721         0.879478         0.039153
 C        -1.541437         1.035950        -0.857575
 O        -1.625502         2.372903        -1.525611
 C        -2.639112         3.044242        -0.766397
 C        -2.642373         2.297949         0.525428
 C        -1.234271         2.345389         1.130604
 H         1.206035         1.196609         0.347697
 H        -1.632099        -1.128973         0.644932
 H        -1.972355        -0.020383         2.055096
 H        -3.774257         0.522971        -0.470005
 H        -1.248974         0.269081        -1.648141
 H        -2.485400         4.151232        -0.574769
 H        -3.508154         2.821723        -1.251783
 H        -3.566064         2.589000         1.144244
 H        -0.759971         3.355264         0.786787
 H        -1.378000         2.391322         2.209873
