19
Iteration:  3097charge 0 multiplicity 1
 O         0.623894         0.591023         0.597981
 C        -0.726652         0.963785         0.463696
 C        -1.845556        -0.047239         0.887201
 C        -2.714956         0.891272         0.057168
 C        -1.535893         1.099928        -0.905815
 O        -1.712552         2.284960        -1.563736
 C        -2.619561         3.013642        -0.666967
 C        -2.626131         2.265844         0.577662
 C        -1.295736         2.362804         1.122186
 H         1.124521         1.357342         0.790637
 H        -1.723410        -1.026307         0.540922
 H        -1.990495        -0.136930         2.006717
 H        -3.707165         0.604278        -0.299751
 H        -1.332946         0.298619        -1.726815
 H        -2.248906         4.045666        -0.486203
 H        -3.613714         2.899151        -1.112453
 H        -3.342325         2.600927         1.377582
 H        -0.834179         3.302303         1.018876
 H        -1.354234         2.251742         2.188928
