19
Iteration:   117charge 0 multiplicity 1
 O         0.553551         0.928864         0.317499
 C        -0.800761         0.941996         0.495407
 C        -1.980324        -0.026450         0.910055
 C        -2.827211         0.805965         0.108514
 C        -1.584064         0.959483        -0.800853
 O        -1.445370         2.206579        -1.447247
 C        -2.407782         3.033041        -0.752845
 C        -2.694778         2.282664         0.564267
 C        -1.325457         2.242375         1.256086
 H         0.997254         1.196636         1.121765
 H        -1.926651        -1.105407         0.368679
 H        -2.067337        -0.290107         1.976423
 H        -3.792580         0.474329        -0.182604
 H        -1.379101         0.107349        -1.392624
 H        -2.013142         4.072717        -0.615832
 H        -3.342323         3.320831        -1.491196
 H        -3.607810         2.728225         0.961921
 H        -0.697107         3.136503         0.875348
 H        -1.269313         2.142642         2.354241
