19
Iteration:  4973charge 0 multiplicity 1
 O         0.648571         0.592846         0.667762
 C        -0.746914         0.962255         0.517787
 C        -1.887684        -0.072189         0.933302
 C        -2.788399         0.827403         0.006702
 C        -1.591689         1.052160        -0.927186
 O        -1.648867         2.299204        -1.525235
 C        -2.606752         3.126687        -0.738364
 C        -2.616562         2.334704         0.548643
 C        -1.251965         2.286807         1.113960
 H         1.214064         1.404073         0.490837
 H        -1.604178        -0.963748         0.537103
 H        -2.006824        -0.039002         2.006160
 H        -3.825319         0.675642        -0.335673
 H        -1.326503         0.179300        -1.484977
 H        -2.377367         4.237175        -0.748792
 H        -3.612223         3.007136        -1.081989
 H        -3.442863         2.597799         1.233495
 H        -0.636710         3.178532         0.812323
 H        -1.312322         2.048633         2.107831
