19
Iteration:  3012
 O         0.562703         0.699778         0.608450
 C        -0.765192         0.940053         0.467918
 C        -1.837803        -0.107656         0.976137
 C        -2.670521         0.819735         0.048198
 C        -1.531722         1.047252        -0.878770
 O        -1.720035         2.373789        -1.494412
 C        -2.599317         3.100066        -0.779701
 C        -2.637726         2.294113         0.506660
 C        -1.284043         2.226150         1.194029
 H         1.005664         0.856722        -0.277080
 H        -1.504077        -1.081705         0.539471
 H        -1.940217        -0.137797         2.141934
 H        -3.673153         0.520059        -0.294605
 H        -1.243916         0.344408        -1.664352
 H        -2.303070         4.238175        -0.606666
 H        -3.659366         3.096887        -1.171502
 H        -3.344672         2.555047         1.237430
 H        -0.596718         3.209206         0.842147
 H        -1.127979         2.203994         2.292919
