19
Iteration:  3755charge 0 multiplicity 1
 O         0.587956         0.607113         0.604702
 C        -0.799058         1.008830         0.535617
 C        -1.818065        -0.055189         1.020415
 C        -2.774828         0.798058         0.084192
 C        -1.570737         1.042769        -0.895842
 O        -1.592481         2.366790        -1.575869
 C        -2.631539         3.059188        -0.735877
 C        -2.670235         2.285830         0.539966
 C        -1.225572         2.292833         1.056240
 H         1.154803         1.389057         0.319877
 H        -1.716836        -0.891573         0.339353
 H        -1.978008        -0.216777         2.090083
 H        -3.803755         0.421356        -0.285310
 H        -1.115447         0.163502        -1.371661
 H        -2.350885         4.092144        -0.649362
 H        -3.596919         3.037783        -1.188039
 H        -3.395809         2.770723         1.170662
 H        -0.714704         3.244940         0.878496
 H        -1.344719         2.034053         2.251105
