19
Iteration:  3783charge 0 multiplicity 1
 O         0.617967         0.684266         0.576946
 C        -0.788995         0.969428         0.508405
 C        -1.804570        -0.042665         0.986940
 C        -2.735070         0.901091        -0.013364
 C        -1.588933         0.981835        -0.913429
 O        -1.626501         2.267192        -1.521314
 C        -2.600231         3.041728        -0.785686
 C        -2.699128         2.318498         0.588088
 C        -1.246604         2.262071         1.237032
 H         1.089380         1.481945         0.217163
 H        -1.841733        -0.952649         0.341266
 H        -1.918859        -0.173946         2.075165
 H        -3.659898         0.581330        -0.534326
 H        -1.530130         0.009419        -1.452821
 H        -2.113542         4.074383        -0.788835
 H        -3.623946         3.297118        -1.280069
 H        -3.544580         2.793288         1.148621
 H        -0.721590         3.228024         1.131793
 H        -1.249562         2.066519         2.232836
