19
Iteration:   263
 O         0.572639         0.739340         0.365727
 C        -0.786749         0.992684         0.597680
 C        -1.839912        -0.090416         1.014041
 C        -2.751926         0.751316         0.044988
 C        -1.548434         1.058324        -0.817389
 O        -1.643819         2.192901        -1.607845
 C        -2.405002         3.180118        -0.815962
 C        -2.745917         2.334183         0.540403
 C        -1.346569         2.299613         1.323904
 H         1.125890         0.851679         1.176471
 H        -1.722564        -1.112607         0.619996
 H        -2.044549        -0.208965         2.138074
 H        -3.684858         0.323519        -0.410663
 H        -1.158534         0.369541        -1.643575
 H        -1.838016         4.066933        -0.719905
 H        -3.399558         3.222538        -1.332511
 H        -3.519189         2.733427         1.185607
 H        -0.893843         3.204338         1.045248
 H        -1.449839         2.141906         2.425641
