19
Iteration:   355
 O         0.547223         0.453331         0.572579
 C        -0.720945         1.033747         0.622627
 C        -1.880459         0.040812         0.979752
 C        -2.742133         0.849383        -0.022384
 C        -1.503153         1.062964        -0.908223
 O        -1.562967         2.365010        -1.519820
 C        -2.797085         2.956399        -0.777580
 C        -2.686509         2.240377         0.537457
 C        -1.130656         2.491619         1.141884
 H         1.312248         0.971467         0.810679
 H        -1.683513        -1.019178         0.663914
 H        -2.207590        -0.016434         1.971345
 H        -3.606699         0.400498        -0.472944
 H        -1.219551         0.193640        -1.453366
 H        -2.495142         4.038112        -0.529767
 H        -3.714659         2.696024        -1.468457
 H        -3.576390         2.442459         1.270577
 H        -0.712345         3.376622         0.529211
 H        -1.127245         2.535855         2.225736
