19
Iteration:  4063
 O         0.607200         0.591702         0.624185
 C        -0.793413         1.004514         0.495415
 C        -1.823336         0.021124         0.985155
 C        -2.790341         0.805799        -0.008604
 C        -1.551852         1.012814        -0.916701
 O        -1.635713         2.293862        -1.591824
 C        -2.646637         3.094818        -0.705962
 C        -2.697594         2.264210         0.552154
 C        -1.206085         2.319770         1.202329
 H         1.212443         1.351735         0.426466
 H        -1.500419        -0.952495         0.608393
 H        -2.074251        -0.002183         2.053243
 H        -3.752781         0.562829        -0.385903
 H        -1.287988         0.125891        -1.549707
 H        -2.268758         4.104173        -0.595411
 H        -3.565043         3.128743        -1.454318
 H        -3.353503         2.737311         1.302917
 H        -0.622335         3.188861         0.779630
 H        -1.039809         2.121424         2.324904
