19
Iteration:  3142charge 0 multiplicity 1
 O         0.654656         0.585126         0.642317
 C        -0.734905         0.936951         0.469735
 C        -1.817836        -0.018221         0.964038
 C        -2.719143         0.804770         0.097378
 C        -1.502625         1.030484        -0.955120
 O        -1.639214         2.410882        -1.561771
 C        -2.754299         3.078307        -0.692283
 C        -2.708314         2.317521         0.566546
 C        -1.265106         2.278201         1.097377
 H         1.178568         1.197409         0.132142
 H        -1.738001        -1.041731         0.585479
 H        -2.100472        -0.228837         2.038797
 H        -3.709656         0.401044        -0.200048
 H        -1.355100         0.193086        -1.691803
 H        -2.311938         4.119394        -0.538143
 H        -3.718037         3.070274        -1.221560
 H        -3.439522         2.741808         1.257122
 H        -0.567839         3.083054         0.898854
 H        -1.271935         2.210120         2.153195
