19
Iteration:  3994charge 0 multiplicity 1
 O         0.559324         0.615231         0.580118
 C        -0.779705         0.915388         0.550444
 C        -1.798708         0.020664         1.005120
 C        -2.799690         0.859203         0.023294
 C        -1.481720         1.018561        -0.943655
 O        -1.622506         2.298694        -1.546567
 C        -2.630697         3.064919        -0.713614
 C        -2.679528         2.369012         0.561916
 C        -1.245150         2.223965         1.153921
 H         0.908932         1.549634         0.405860
 H        -1.487853        -0.954273         0.682492
 H        -2.099107        -0.008087         2.085282
 H        -3.775666         0.397258        -0.292596
 H        -1.089258         0.367332        -1.705095
 H        -2.217417         4.093545        -0.675910
 H        -3.653706         3.062321        -1.257039
 H        -3.634579         2.531772         0.974997
 H        -0.687108         3.188435         0.676502
 H        -1.087158         2.299893         2.195978
