19
Iteration:   490charge 0 multiplicity 1
 O         0.546465         0.632244         0.603455
 C        -0.797655         0.943339         0.550781
 C        -1.883653        -0.058881         0.935006
 C        -2.789331         0.761271         0.053542
 C        -1.496896         1.092932        -0.871356
 O        -1.605892         2.323206        -1.511273
 C        -2.681004         3.048938        -0.801562
 C        -2.581208         2.339916         0.544680
 C        -1.212297         2.335707         1.109500
 H         0.965426         1.533232         0.668666
 H        -1.630858        -1.099829         0.717293
 H        -1.948549        -0.171769         2.002470
 H        -3.742934         0.310425        -0.355779
 H        -1.185382         0.266990        -1.553818
 H        -2.394627         4.159119        -0.601257
 H        -3.657964         2.992242        -1.430609
 H        -3.321892         2.589523         1.293604
 H        -0.446694         3.013392         0.591309
 H        -1.199161         2.376533         2.220134
