19
Iteration:    18
 O         0.772754         0.577663         0.750336
 C        -0.681147         0.904032         0.396253
 C        -1.881863        -0.008980         0.891131
 C        -2.791885         0.890077         0.034130
 C        -1.605594         1.067969        -0.952145
 O        -1.624651         2.412286        -1.555955
 C        -2.690922         3.084798        -0.731818
 C        -2.706388         2.295786         0.567408
 C        -1.266325         2.236437         1.090036
 H         0.793807         0.644584         1.713131
 H        -1.840679        -1.115651         0.570347
 H        -2.116738         0.146015         1.956869
 H        -3.729887         0.464241        -0.357613
 H        -1.533317         0.276185        -1.716659
 H        -2.422155         4.161418        -0.672731
 H        -3.680410         2.790128        -1.195485
 H        -3.477502         2.602043         1.294746
 H        -0.596345         3.142693         0.834516
 H        -1.083950         2.228396         2.190880
