19
Iteration:  3784charge 0 multiplicity 1
 O         0.620247         0.684424         0.575204
 C        -0.788893         0.976265         0.513403
 C        -1.805775        -0.035866         0.989017
 C        -2.723569         0.905420        -0.013759
 C        -1.601915         0.972896        -0.904557
 O        -1.624395         2.262577        -1.523876
 C        -2.600747         3.047184        -0.775945
 C        -2.700412         2.318648         0.583598
 C        -1.248495         2.263316         1.219629
 H         1.071270         1.470568         0.221192
 H        -1.835078        -0.963015         0.337987
 H        -1.921536        -0.205767         2.069509
 H        -3.673327         0.589103        -0.584306
 H        -1.493294         0.017983        -1.476285
 H        -2.122137         4.073456        -0.770808
 H        -3.608732         3.283301        -1.255930
 H        -3.543086         2.787140         1.137997
 H        -0.731579         3.208367         1.170969
 H        -1.251810         2.025859         2.268266
