19
Iteration:  4965
 O         0.624412         0.588574         0.694795
 C        -0.767613         0.962434         0.523829
 C        -1.857202        -0.082770         0.929163
 C        -2.730816         0.859246        -0.016955
 C        -1.595461         1.019810        -0.904168
 O        -1.682113         2.349980        -1.561718
 C        -2.619404         3.084079        -0.751226
 C        -2.642830         2.346041         0.581169
 C        -1.239058         2.262327         1.120138
 H         1.240816         1.348981         0.512202
 H        -1.805198        -1.117859         0.570449
 H        -1.806069        -0.120434         2.045871
 H        -3.747053         0.543122        -0.399640
 H        -1.438308         0.286246        -1.733508
 H        -2.117448         4.074608        -0.615744
 H        -3.610935         3.007680        -1.277243
 H        -3.364865         2.791569         1.243006
 H        -0.701338         3.226386         0.804483
 H        -1.116421         2.341403         2.213460
