19
Iteration:   877charge 0 multiplicity 1
 O         0.586355         0.798095         0.551094
 C        -0.775058         0.948642         0.507171
 C        -1.862092        -0.034615         0.971797
 C        -2.811527         0.841304         0.047134
 C        -1.559219         0.968092        -0.861876
 O        -1.551350         2.359735        -1.486000
 C        -2.653443         3.077116        -0.860426
 C        -2.647759         2.320707         0.532669
 C        -1.236924         2.187662         1.180678
 H         0.841000        -0.124300         0.840499
 H        -1.567023        -1.027853         0.671951
 H        -2.067342        -0.062378         1.983966
 H        -3.759658         0.540389        -0.443778
 H        -1.248556         0.247178        -1.621170
 H        -2.332406         4.122452        -0.719067
 H        -3.665566         3.073023        -1.345486
 H        -3.245632         2.638565         1.312022
 H        -0.491071         2.997740         1.021364
 H        -1.286342         2.191412         2.322749
