19
Iteration:   505
 O         0.633796         0.568922         0.732574
 C        -0.740065         0.979784         0.498319
 C        -1.879166        -0.061591         0.961623
 C        -2.742740         0.830046        -0.011211
 C        -1.561498         1.042676        -0.901602
 O        -1.637418         2.391556        -1.522470
 C        -2.721960         3.004257        -0.779965
 C        -2.714051         2.341564         0.582467
 C        -1.092531         2.300875         1.064027
 H         1.226339         1.329701         0.693517
 H        -1.796950        -1.004016         0.450521
 H        -2.392502        -0.040814         1.986095
 H        -3.783997         0.629548        -0.384480
 H        -1.216777         0.307459        -1.703079
 H        -2.647415         4.037967        -0.979121
 H        -3.689836         2.692496        -1.194314
 H        -3.461573         2.664857         1.295663
 H        -0.682158         3.163103         0.634240
 H        -0.884835         2.414935         2.155388
