19
Iteration:  2651
 O         0.619455         0.602779         0.626300
 C        -0.705582         0.978976         0.499244
 C        -1.841496        -0.005208         0.989200
 C        -2.796365         0.753806         0.135697
 C        -1.536625         1.016659        -0.926502
 O        -1.645218         2.363582        -1.523608
 C        -2.649772         3.087473        -0.843849
 C        -2.707354         2.268993         0.524286
 C        -1.225780         2.342922         1.167835
 H         1.127821         1.267660         0.051639
 H        -1.536569        -0.968902         0.478161
 H        -2.223731        -0.190344         2.110884
 H        -3.752388         0.338901        -0.029617
 H        -1.318925         0.265387        -1.644537
 H        -2.283669         4.194712        -0.743260
 H        -3.531340         3.068679        -1.454039
 H        -3.512284         2.628801         1.163834
 H        -0.472788         3.191787         0.947337
 H        -1.343733         2.233540         2.203074
