19
Iteration:  4427
 O         0.576382         0.632065         0.600060
 C        -0.777387         0.993363         0.548752
 C        -1.823913        -0.021076         0.966473
 C        -2.749537         0.812999         0.011171
 C        -1.571299         1.026852        -0.865205
 O        -1.655437         2.346708        -1.567263
 C        -2.499067         3.057062        -0.760856
 C        -2.713082         2.283332         0.553093
 C        -1.269170         2.273135         1.199865
 H         0.980933         1.270486        -0.053302
 H        -1.598849        -0.980220         0.552226
 H        -2.121469        -0.047755         2.004339
 H        -3.617789         0.262842        -0.312674
 H        -1.191914         0.294859        -1.475634
 H        -2.095137         4.015654        -0.862582
 H        -3.538200         3.235581        -1.139276
 H        -3.591582         2.604192         1.170037
 H        -0.762325         3.125766         0.800321
 H        -1.174578         2.265753         2.229908
