19
Iteration:  1330
 O         0.656181         0.649395         0.599409
 C        -0.790947         0.972439         0.561110
 C        -1.865163        -0.019788         0.983607
 C        -2.722659         0.838722         0.006279
 C        -1.500356         1.069506        -0.876980
 O        -1.654304         2.384610        -1.531900
 C        -2.603995         3.074330        -0.773923
 C        -2.723742         2.246199         0.519308
 C        -1.249616         2.287356         1.100878
 H         0.539503        -0.285534         0.777966
 H        -1.635373        -1.024371         0.554463
 H        -2.233969         0.023801         2.085780
 H        -3.697705         0.426930        -0.166482
 H        -1.062425         0.421890        -1.573574
 H        -2.302197         4.143348        -0.698919
 H        -3.604617         2.985259        -1.233819
 H        -3.511569         2.648934         1.204149
 H        -0.562152         3.111434         0.842580
 H        -1.293256         2.205207         2.155223
