19
Iteration:  4814
 O         0.585758         0.535805         0.666458
 C        -0.697268         0.980069         0.494874
 C        -1.847782         0.004441         0.937611
 C        -2.790916         0.871279         0.025017
 C        -1.519085         1.129684        -0.880186
 O        -1.723566         2.313540        -1.646639
 C        -2.588298         3.030832        -0.711318
 C        -2.687382         2.294686         0.565557
 C        -1.185278         2.287785         1.169937
 H         1.327075         1.195003         0.567257
 H        -1.751900        -0.982661         0.481558
 H        -2.211725         0.043473         1.974569
 H        -3.704358         0.415199        -0.280599
 H        -1.305752         0.247158        -1.450195
 H        -2.244827         4.048979        -0.607987
 H        -3.565442         3.060869        -1.265679
 H        -3.436161         2.780656         1.112356
 H        -0.673233         3.145647         0.939998
 H        -1.254014         2.084501         2.265360
