19
Iteration:  4235charge 0 multiplicity 1
 O         0.632978         0.645895         0.574674
 C        -0.819216         0.982155         0.461273
 C        -1.785478        -0.003681         0.961833
 C        -2.810468         0.875655         0.011461
 C        -1.556573         1.065516        -0.854933
 O        -1.666616         2.269764        -1.554087
 C        -2.541535         3.033665        -0.791965
 C        -2.703740         2.262509         0.581207
 C        -1.232656         2.250584         1.221219
 H         1.040908         1.509623         0.704316
 H        -1.914166        -1.017384         0.578323
 H        -2.095948         0.129574         2.018917
 H        -3.710223         0.498277        -0.461923
 H        -1.229574         0.247740        -1.565778
 H        -2.101957         4.022364        -0.419076
 H        -3.604743         3.181809        -1.324303
 H        -3.498958         2.652046         1.172008
 H        -0.675291         3.147615         0.902074
 H        -1.091232         2.191920         2.255690
