19
Iteration:   176
 O         0.617757         0.539357         0.674567
 C        -0.689035         1.012595         0.438569
 C        -1.788952         0.006833         0.925414
 C        -2.729535         0.810628        -0.029703
 C        -1.565875         1.062050        -0.927284
 O        -1.722190         2.299090        -1.570254
 C        -2.634391         3.069524        -0.741479
 C        -2.708751         2.332754         0.574207
 C        -1.242524         2.324055         1.149702
 H         0.793668         0.619890         1.625456
 H        -1.379838        -0.892582         0.672561
 H        -2.004976         0.128382         1.991486
 H        -3.816006         0.664651        -0.289089
 H        -1.190582         0.290369        -1.691875
 H        -2.225777         4.062150        -0.580111
 H        -3.703810         3.038005        -1.233020
 H        -3.550083         2.725150         1.123871
 H        -0.677509         3.218555         1.040212
 H        -1.082154         2.122943         2.262959
