19
Iteration:  4252charge 0 multiplicity 1
 O         0.584448         0.668080         0.557833
 C        -0.715098         1.014623         0.450306
 C        -1.903442        -0.041457         0.981369
 C        -2.748234         0.767861         0.079178
 C        -1.561976         0.982824        -0.937483
 O        -1.625846         2.274985        -1.565403
 C        -2.522946         3.127400        -0.698929
 C        -2.688101         2.301191         0.560841
 C        -1.306225         2.305795         1.159458
 H         1.167553         1.444579         0.556738
 H        -1.534516        -0.992204         0.627281
 H        -2.072887        -0.212866         2.039919
 H        -3.766172         0.478334        -0.201344
 H        -1.430993         0.156302        -1.578820
 H        -2.022241         4.057598        -0.684910
 H        -3.450216         3.224162        -1.177268
 H        -3.547132         2.621578         1.202927
 H        -0.743438         3.246930         1.100260
 H        -1.401388         2.201423         2.367065
