19
Iteration:  3469
 O         0.568066         0.644111         0.557018
 C        -0.771096         1.089704         0.501677
 C        -1.915252        -0.101566         1.033870
 C        -2.720596         0.774782         0.108643
 C        -1.521002         1.038469        -0.855174
 O        -1.693234         2.396425        -1.566319
 C        -2.560588         3.081004        -0.779324
 C        -2.722795         2.190138         0.504675
 C        -1.170258         2.313779         1.164007
 H         1.096609         1.128656        -0.068550
 H        -1.625563        -1.113851         0.634620
 H        -2.020750        -0.170748         2.085070
 H        -3.659196         0.342903        -0.404881
 H        -1.079621         0.308612        -1.574637
 H        -2.190647         4.017556        -0.552885
 H        -3.576327         3.184637        -1.257920
 H        -3.517587         2.493336         1.155067
 H        -0.535243         3.192088         0.975610
 H        -1.131193         2.152581         2.291247
