19
Iteration:  4889
 O         0.565508         0.658990         0.543558
 C        -0.827598         0.945956         0.518431
 C        -1.875995        -0.017227         0.944153
 C        -2.789896         0.783947         0.080180
 C        -1.559692         1.023113        -0.859650
 O        -1.571799         2.346351        -1.482235
 C        -2.549621         3.017928        -0.768105
 C        -2.639412         2.341837         0.556093
 C        -1.260626         2.272803         1.148778
 H         0.973411         1.318087        -0.014266
 H        -1.517931        -1.026431         0.710211
 H        -2.092273        -0.037701         2.053556
 H        -3.649827         0.524462        -0.543712
 H        -1.366743         0.161447        -1.503445
 H        -2.298742         4.085831        -0.702388
 H        -3.548080         3.094676        -1.315815
 H        -3.434487         2.871002         0.966395
 H        -0.509037         3.070623         0.956919
 H        -1.237953         2.246340         2.251246
