19
Iteration:   296
 O         0.668800         0.874561         0.529029
 C        -0.800275         0.975407         0.471632
 C        -1.910174        -0.046534         0.939306
 C        -2.860045         0.834401         0.056009
 C        -1.605177         1.027793        -0.912340
 O        -1.678709         2.146333        -1.627742
 C        -2.357831         3.065367        -0.737409
 C        -2.662633         2.329394         0.613344
 C        -1.286736         2.197022         1.251143
 H         0.909697         1.264393         1.411757
 H        -1.873954        -1.025244         0.493959
 H        -2.031013         0.049028         2.087420
 H        -3.781443         0.333793        -0.386471
 H        -1.386586         0.130013        -1.625923
 H        -1.859167         3.981981        -0.739148
 H        -3.338649         3.280281        -1.229773
 H        -3.507088         2.714477         1.160570
 H        -0.864661         3.123395         1.145262
 H        -1.129299         2.036638         2.344886
