19
Iteration:  1841charge 0 multiplicity 1
 O         0.627403         0.731123         0.368786
 C        -0.790611         0.975283         0.563496
 C        -1.830946        -0.110533         0.994485
 C        -2.801950         0.784352         0.106219
 C        -1.576548         1.055287        -0.786827
 O        -1.550643         2.310666        -1.475329
 C        -2.588372         3.089427        -0.791359
 C        -2.741158         2.331576         0.519934
 C        -1.287007         2.268056         1.123008
 H         1.122047         0.642428         1.218668
 H        -1.839379        -1.177653         0.532261
 H        -2.077569        -0.057506         2.028868
 H        -3.733260         0.476197        -0.390875
 H        -1.066361         0.274639        -1.388481
 H        -2.264703         4.075827        -0.633623
 H        -3.407924         3.145456        -1.438072
 H        -3.595874         2.653078         1.221443
 H        -0.545717         3.115444         0.746405
 H        -1.235748         2.282905         2.326962
