19
Iteration:  3690
 O         0.596024         0.623328         0.658489
 C        -0.754605         0.996370         0.470312
 C        -1.789341        -0.067451         0.981635
 C        -2.793061         0.819811         0.003025
 C        -1.574864         1.068418        -0.907219
 O        -1.661988         2.297943        -1.559427
 C        -2.616525         3.041853        -0.780030
 C        -2.673072         2.373273         0.596398
 C        -1.231478         2.282515         1.160344
 H         1.222363         1.267983         0.340161
 H        -1.684556        -1.018640         0.434646
 H        -2.079796        -0.120684         2.036624
 H        -3.757393         0.240879        -0.148075
 H        -1.116573         0.365821        -1.609416
 H        -2.363402         4.069380        -0.957330
 H        -3.684576         3.055771        -1.209153
 H        -3.369243         2.684238         1.344570
 H        -0.618007         3.113417         0.882357
 H        -1.116122         2.239749         2.282247
