19
Iteration:  3380
 O         0.685559         0.648227         0.584871
 C        -0.737148         0.992521         0.508614
 C        -1.849602         0.033502         0.884608
 C        -2.807991         0.842667         0.054421
 C        -1.526999         1.021785        -0.897149
 O        -1.721058         2.259577        -1.530086
 C        -2.612510         3.127225        -0.699595
 C        -2.719017         2.237585         0.572908
 C        -1.234354         2.278773         1.110015
 H         1.236159         1.388955         0.389528
 H        -1.683004        -0.928325         0.473164
 H        -2.016734         0.041045         1.979083
 H        -3.731909         0.296562        -0.248637
 H        -1.131121         0.097098        -1.493386
 H        -2.081532         3.987339        -0.522146
 H        -3.503672         3.276248        -1.292889
 H        -3.475623         2.404248         1.412975
 H        -0.648654         3.179893         0.986026
 H        -1.363295         2.138982         2.304253
