19
Iteration:  3279charge 0 multiplicity 1
 O         0.579831         0.556719         0.615459
 C        -0.692487         1.006042         0.429649
 C        -1.791938         0.000159         0.924690
 C        -2.735074         0.757104         0.015952
 C        -1.603393         1.090912        -0.935223
 O        -1.631073         2.371439        -1.554118
 C        -2.655120         2.998663        -0.722622
 C        -2.748819         2.234028         0.666669
 C        -1.214456         2.378230         1.160164
 H         1.291871         1.223966         0.406212
 H        -1.654051        -1.065477         0.775775
 H        -1.983966         0.111845         1.996151
 H        -3.723531         0.485296        -0.264940
 H        -1.352736         0.272931        -1.651693
 H        -2.419239         4.060376        -0.585930
 H        -3.548355         3.028341        -1.333314
 H        -3.576250         2.649231         1.319783
 H        -0.758868         3.330498         0.853029
 H        -0.976471         2.283223         2.303815
