19
Iteration:  3941
 O         0.547172         0.683168         0.584660
 C        -0.755791         0.992691         0.474637
 C        -1.796668        -0.073520         0.954767
 C        -2.790361         0.838718         0.054731
 C        -1.608540         1.055399        -0.815699
 O        -1.625157         2.261787        -1.598799
 C        -2.581074         3.106825        -0.818597
 C        -2.631230         2.322539         0.596852
 C        -1.224835         2.214186         1.254784
 H         1.023780         1.491942         0.221271
 H        -1.598057        -1.035935         0.549039
 H        -2.166332        -0.067596         1.984797
 H        -3.584920         0.423378        -0.576818
 H        -1.361418         0.210817        -1.442252
 H        -2.213584         4.134597        -0.715255
 H        -3.533531         3.197659        -1.466898
 H        -3.382674         2.641583         1.272523
 H        -0.746248         3.043577         0.940504
 H        -1.343128         2.172496         2.317353
