19
Iteration:   675
 O         0.563007         0.447146         0.855254
 C        -0.722400         1.032124         0.506898
 C        -1.759045         0.045598         0.891756
 C        -2.718181         0.867243         0.018428
 C        -1.546758         1.061689        -0.974943
 O        -1.755059         2.356465        -1.565193
 C        -2.785700         3.046211        -0.750477
 C        -2.636744         2.287148         0.515954
 C        -1.113981         2.342747         1.094058
 H         1.313274         0.961653         0.439391
 H        -1.437457        -0.941136         0.575061
 H        -2.021511        -0.201266         1.946842
 H        -3.730732         0.662168        -0.397703
 H        -1.135596         0.177622        -1.566226
 H        -2.482117         4.120425        -0.723885
 H        -3.713156         2.990565        -1.308841
 H        -3.568877         2.422337         1.256935
 H        -0.610742         3.218151         0.644901
 H        -0.967982         2.353501         2.153179
