19
Iteration:  1361
 O         0.677342         0.844745         0.637601
 C        -0.817268         0.966357         0.503803
 C        -1.867691        -0.099489         0.894676
 C        -2.743322         0.877899         0.019015
 C        -1.611627         1.018447        -0.944190
 O        -1.683286         2.243309        -1.591166
 C        -2.454785         3.056138        -0.707716
 C        -2.688601         2.317313         0.572092
 C        -1.270784         2.267318         1.211886
 H         0.660306        -0.130032         0.866365
 H        -1.789577        -1.132033         0.525678
 H        -2.136078        -0.208284         1.884232
 H        -3.771395         0.660186        -0.190476
 H        -1.372895         0.240652        -1.678612
 H        -1.943412         4.049331        -0.757595
 H        -3.460986         3.276806        -1.239116
 H        -3.526575         2.685913         1.252062
 H        -0.616672         3.095344         1.066057
 H        -1.310920         2.033004         2.204295
