19
Iteration:  1392charge 0 multiplicity 1
 O         0.600028         0.817045         0.633457
 C        -0.821876         0.977792         0.538409
 C        -1.803639        -0.135570         0.955862
 C        -2.754098         0.814044         0.039961
 C        -1.572080         1.065440        -0.886468
 O        -1.667091         2.238986        -1.610886
 C        -2.460343         3.130819        -0.774907
 C        -2.732768         2.378314         0.540107
 C        -1.273887         2.216971         1.228814
 H         0.793534         0.193480        -0.062914
 H        -1.825282        -1.180378         0.576290
 H        -1.947735        -0.100233         1.988733
 H        -3.731026         0.581326        -0.324680
 H        -1.355953         0.186581        -1.590167
 H        -1.779087         3.998562        -0.679499
 H        -3.385258         3.371996        -1.376085
 H        -3.591995         2.616697         1.236131
 H        -0.563457         3.019690         1.108380
 H        -1.333468         1.869220         2.336716
