19
Iteration:  3297
 O         0.552997         0.640560         0.586551
 C        -0.815338         0.991183         0.469902
 C        -1.800574        -0.014732         1.011008
 C        -2.734452         0.814962         0.056766
 C        -1.498439         1.040480        -0.912441
 O        -1.652724         2.348525        -1.449482
 C        -2.713600         3.078811        -0.714519
 C        -2.610967         2.281420         0.511592
 C        -1.216776         2.216444         1.091573
 H         1.103674         1.364247         0.180484
 H        -1.461236        -1.017528         0.477591
 H        -1.997469        -0.065121         2.098035
 H        -3.670708         0.357113        -0.347674
 H        -1.098041         0.322376        -1.581382
 H        -2.462562         4.255993        -0.678559
 H        -3.734038         3.136942        -1.229963
 H        -3.359824         2.495432         1.222933
 H        -0.665355         3.106864         0.681111
 H        -1.195814         2.130911         2.096902
