19
Iteration:  2426
 O         0.625478         0.674431         0.665985
 C        -0.769855         0.972543         0.476478
 C        -1.781467        -0.007295         0.934283
 C        -2.779796         0.784644         0.037814
 C        -1.574995         1.005996        -0.929426
 O        -1.730463         2.240794        -1.623594
 C        -2.566105         3.114249        -0.705883
 C        -2.694211         2.281192         0.579668
 C        -1.233596         2.330863         1.222745
 H         1.028939         1.334611         0.122258
 H        -1.467972        -1.029491         0.488429
 H        -1.989164        -0.036383         2.002676
 H        -3.799787         0.515844        -0.106559
 H        -1.161224         0.250012        -1.699244
 H        -2.144922         4.067128        -0.629586
 H        -3.451814         3.133803        -1.243676
 H        -3.622502         2.682399         1.131721
 H        -0.713392         3.143187         0.776344
 H        -1.018356         2.321199         2.366926
