19
Iteration:  2901
 O         0.617061         0.770164         0.436774
 C        -0.792632         1.006680         0.528697
 C        -1.879293        -0.069828         0.956155
 C        -2.804561         0.809755         0.071010
 C        -1.524248         1.061356        -0.828664
 O        -1.578074         2.283357        -1.579929
 C        -2.583013         3.060681        -0.669040
 C        -2.698988         2.255619         0.561163
 C        -1.248054         2.254956         1.177680
 H         1.014713         0.375626         1.221762
 H        -1.670655        -0.985562         0.414907
 H        -2.015657        -0.155252         2.097655
 H        -3.741025         0.517242        -0.393992
 H        -1.282771         0.301785        -1.578408
 H        -2.272785         4.150765        -0.851141
 H        -3.552238         3.094280        -1.217668
 H        -3.423570         2.655289         1.218457
 H        -0.737349         3.237388         0.810990
 H        -1.385975         2.222557         2.271337
