19
Iteration:  3499
 O         0.640977         0.704766         0.567830
 C        -0.746137         1.036894         0.496946
 C        -1.829893         0.037408         0.886187
 C        -2.785559         0.896798         0.081476
 C        -1.626450         0.973707        -0.955385
 O        -1.612002         2.213252        -1.524196
 C        -2.547128         3.052940        -0.699201
 C        -2.763001         2.283519         0.548108
 C        -1.246739         2.227794         1.232774
 H         1.065534         1.521353         0.146324
 H        -1.751460        -0.794367         0.282325
 H        -1.994565        -0.046939         1.966336
 H        -3.676495         0.335072        -0.138924
 H        -1.348974         0.053355        -1.624981
 H        -2.032780         4.049337        -0.620316
 H        -3.602338         3.091196        -1.218087
 H        -3.541825         2.672008         1.298855
 H        -0.580877         3.016458         1.027656
 H        -1.276398         2.120328         2.365594
