19
Iteration:  4765
 O         0.584721         0.597027         0.644970
 C        -0.777874         0.898277         0.454106
 C        -1.915114        -0.016120         0.941389
 C        -2.764030         0.850922         0.052478
 C        -1.517706         1.077127        -0.948029
 O        -1.625141         2.348981        -1.488525
 C        -2.617525         3.050080        -0.788419
 C        -2.656670         2.313533         0.591834
 C        -1.216025         2.304404         1.176089
 H         1.128823         1.302162         0.314194
 H        -1.717965        -1.074922         0.585883
 H        -1.954177        -0.003930         2.049093
 H        -3.819758         0.504880        -0.233202
 H        -1.239163         0.252195        -1.681879
 H        -2.173369         4.131401        -0.682489
 H        -3.603892         2.937642        -1.437203
 H        -3.503213         2.448864         1.394152
 H        -0.757900         3.108268         0.492169
 H        -0.950875         2.334438         2.221513
