19
Iteration:  1785
 O         0.692474         0.634650         0.622989
 C        -0.762168         0.964849         0.509207
 C        -1.853271        -0.105319         1.033829
 C        -2.701336         0.795863         0.059203
 C        -1.500385         1.092544        -0.934291
 O        -1.769476         2.298195        -1.582035
 C        -2.712022         3.166435        -0.759296
 C        -2.626144         2.340568         0.476262
 C        -1.222612         2.318805         1.130499
 H         1.010453         0.218751         1.472915
 H        -1.713640        -1.090600         0.469715
 H        -2.247557        -0.290579         2.009141
 H        -3.650297         0.648930        -0.348422
 H        -1.165840         0.315997        -1.644926
 H        -2.364165         4.128445        -0.569285
 H        -3.651708         3.168375        -1.184756
 H        -3.490194         2.515600         1.161608
 H        -0.533533         3.221081         0.783753
 H        -1.241090         2.175680         2.277135
