19
Iteration:  3828charge 0 multiplicity 1
 O         0.564426         0.633002         0.613533
 C        -0.772311         0.964952         0.504013
 C        -1.780540        -0.053083         1.013272
 C        -2.746893         0.829736         0.033327
 C        -1.575990         1.026031        -0.893993
 O        -1.629162         2.308157        -1.601599
 C        -2.556093         3.111198        -0.710080
 C        -2.722317         2.302626         0.539844
 C        -1.252936         2.292477         1.163044
 H         1.164534         1.308141         0.249303
 H        -1.365255        -0.966115         0.496265
 H        -2.139732        -0.043754         2.041579
 H        -3.795812         0.477344        -0.334828
 H        -1.383985         0.140724        -1.562425
 H        -2.325747         4.209306        -0.540690
 H        -3.522942         3.182344        -1.355699
 H        -3.594690         2.386818         1.225061
 H        -0.652482         3.141176         0.869414
 H        -1.278909         2.233047         2.202638
