19
Iteration:   372charge 0 multiplicity 1
 O         0.535003         0.442970         0.645804
 C        -0.767638         1.014398         0.500183
 C        -1.824554         0.053671         1.031299
 C        -2.684550         0.773869         0.031727
 C        -1.446993         1.090635        -0.868493
 O        -1.644917         2.423431        -1.474724
 C        -2.720986         3.007073        -0.833106
 C        -2.669592         2.329313         0.519899
 C        -1.227629         2.305941         1.055013
 H         1.089811         1.200287         0.449963
 H        -1.629775        -1.019958         0.920243
 H        -2.162814         0.124063         2.174421
 H        -3.722155         0.447416        -0.345660
 H        -0.996142         0.474029        -1.747724
 H        -2.712474         4.056797        -0.894040
 H        -3.612762         2.749006        -1.349672
 H        -3.367480         2.529953         1.284938
 H        -0.666819         3.139113         0.634851
 H        -1.173457         2.351905         2.174095
