19
Iteration:  3926charge 0 multiplicity 1
 O         0.596875         0.647161         0.605148
 C        -0.807009         0.978507         0.522006
 C        -1.886576        -0.047716         0.996431
 C        -2.733306         0.774889         0.062539
 C        -1.495948         1.040145        -0.938142
 O        -1.692576         2.330788        -1.551877
 C        -2.556049         3.071076        -0.785206
 C        -2.666750         2.312677         0.508133
 C        -1.249139         2.281535         1.192422
 H         1.076335         1.381846         0.215968
 H        -1.665172        -1.089516         0.587847
 H        -1.968414        -0.106544         2.090197
 H        -3.854326         0.514526        -0.043064
 H        -1.237498         0.334245        -1.753672
 H        -2.127456         4.127011        -0.716089
 H        -3.647018         3.092959        -1.165801
 H        -3.504401         2.764559         1.100621
 H        -0.455686         3.173898         1.150115
 H        -1.166465         2.040661         2.255593
