19
Iteration:  2523charge 0 multiplicity 1
 O         0.645380         0.572686         0.676265
 C        -0.691429         1.034712         0.481054
 C        -1.870149        -0.068422         0.985830
 C        -2.807449         0.821279         0.081566
 C        -1.541052         1.069039        -0.842787
 O        -1.630154         2.376989        -1.535428
 C        -2.706107         3.074228        -0.800180
 C        -2.654264         2.240439         0.527567
 C        -1.206462         2.316526         1.048785
 H         1.221619         1.290843         0.456149
 H        -1.593672        -1.031943         0.751688
 H        -2.021841        -0.034736         2.020555
 H        -3.719603         0.514804        -0.345650
 H        -1.545523         0.186806        -1.560228
 H        -2.569013         4.136834        -0.855161
 H        -3.742958         2.886859        -1.353677
 H        -3.485189         2.345568         1.300617
 H        -0.874642         3.287132         0.705368
 H        -1.001338         2.186491         2.121873
