19
Iteration:  1975charge 0 multiplicity 1
 O         0.608605         0.668203         0.485407
 C        -0.791487         0.986634         0.555719
 C        -1.813497        -0.050113         1.000703
 C        -2.754866         0.804158         0.061487
 C        -1.581473         1.070611        -0.816374
 O        -1.537002         2.344416        -1.480979
 C        -2.646792         3.063015        -0.772999
 C        -2.751650         2.290479         0.501139
 C        -1.220168         2.250676         1.154125
 H         0.999299         1.355749        -0.039299
 H        -1.580282        -1.028805         0.604825
 H        -2.193011        -0.191876         2.086713
 H        -3.756465         0.347751        -0.240325
 H        -1.370261         0.244910        -1.503388
 H        -2.364385         4.091998        -0.761492
 H        -3.493139         2.905688        -1.456102
 H        -3.581830         2.558587         1.200268
 H        -0.674701         3.175786         0.720256
 H        -1.222991         2.171762         2.388724
