19
Iteration:   876charge 0 multiplicity 1
 O         0.592216         0.788862         0.556539
 C        -0.766878         0.948419         0.497368
 C        -1.863003        -0.035591         0.972045
 C        -2.805221         0.850599         0.042775
 C        -1.556758         0.971637        -0.863264
 O        -1.550268         2.356959        -1.483732
 C        -2.662964         3.074827        -0.860344
 C        -2.650968         2.322757         0.533943
 C        -1.233190         2.193570         1.184548
 H         0.796081        -0.135740         0.822215
 H        -1.545833        -0.983091         0.677744
 H        -2.115428        -0.042831         1.989341
 H        -3.752134         0.499852        -0.448217
 H        -1.267672         0.225125        -1.603314
 H        -2.353035         4.132472        -0.702213
 H        -3.699858         3.072483        -1.333626
 H        -3.240102         2.638533         1.317094
 H        -0.531810         2.990349         1.014113
 H        -1.306896         2.183425         2.287521
