19
Iteration:  3377
 O         0.686502         0.652947         0.576184
 C        -0.735321         0.992863         0.538381
 C        -1.806159         0.038018         0.913968
 C        -2.838081         0.839277         0.033172
 C        -1.534859         1.018486        -0.891109
 O        -1.721036         2.283647        -1.564153
 C        -2.595547         3.127327        -0.703985
 C        -2.722715         2.238778         0.566295
 C        -1.255097         2.236769         1.126220
 H         1.319584         1.369514         0.355136
 H        -1.729777        -0.981966         0.587565
 H        -1.999608        -0.049173         2.022976
 H        -3.777390         0.371735        -0.153649
 H        -1.146027         0.171483        -1.510844
 H        -2.017965         4.115226        -0.528502
 H        -3.541130         3.258532        -1.310176
 H        -3.458368         2.382405         1.413157
 H        -0.697881         3.106361         0.977107
 H        -1.364237         2.187872         2.228521
