19
Iteration:  2195
 O         0.604067         0.580000         0.672207
 C        -0.774220         0.989550         0.548828
 C        -1.752450        -0.046420         0.925694
 C        -2.708399         0.695693        -0.005334
 C        -1.576417         1.032930        -0.893986
 O        -1.808972         2.304571        -1.653384
 C        -2.572230         3.112655        -0.784083
 C        -2.667525         2.387420         0.600030
 C        -1.199527         2.382651         1.209933
 H         1.158175         1.331105         0.427458
 H        -1.435644        -1.044526         0.656395
 H        -2.193380        -0.058810         1.979027
 H        -3.707905         0.300674        -0.148104
 H        -1.263750         0.316391        -1.684535
 H        -2.147674         4.084052        -0.770971
 H        -3.644872         2.921517        -1.249881
 H        -3.405507         2.653340         1.343490
 H        -0.625893         3.216975         0.905933
 H        -1.266238         2.286808         2.298542
