19
Iteration:  3917charge 0 multiplicity 1
 O         0.626847         0.604067         0.630146
 C        -0.739038         0.983381         0.463492
 C        -1.836637        -0.007825         0.996514
 C        -2.762602         0.832120         0.025476
 C        -1.543385         1.016134        -0.936303
 O        -1.648857         2.296717        -1.592039
 C        -2.599671         3.082008        -0.689406
 C        -2.696661         2.311535         0.562117
 C        -1.257915         2.296546         1.184420
 H         1.071500         1.361863         0.234208
 H        -1.861040        -0.994303         0.518783
 H        -2.099488        -0.010758         2.067851
 H        -3.826434         0.372178        -0.167785
 H        -1.065898         0.274725        -1.580228
 H        -2.302005         4.161047        -0.540372
 H        -3.535420         3.121557        -1.391783
 H        -3.494992         2.592391         1.239995
 H        -0.590001         3.070988         0.838219
 H        -1.525921         2.284039         2.170052
