19
Iteration:   295charge 0 multiplicity 1
 O         0.663045         0.876911         0.523126
 C        -0.799780         0.981162         0.476267
 C        -1.911015        -0.044816         0.937959
 C        -2.861406         0.835600         0.052071
 C        -1.597316         1.020779        -0.905520
 O        -1.683619         2.142102        -1.625324
 C        -2.357467         3.056379        -0.732785
 C        -2.671130         2.327599         0.602416
 C        -1.281365         2.198134         1.256930
 H         0.914942         1.258650         1.391869
 H        -1.899500        -1.045575         0.439325
 H        -2.019386         0.063033         2.079217
 H        -3.760670         0.360819        -0.394843
 H        -1.371508         0.171798        -1.627651
 H        -1.825675         3.973921        -0.694782
 H        -3.312694         3.263426        -1.203375
 H        -3.474691         2.753569         1.154295
 H        -0.842011         3.149136         1.162021
 H        -1.142110         2.065306         2.344435
