19
Iteration:  4222
 O         0.589329         0.650439         0.579087
 C        -0.697082         0.961147         0.539396
 C        -1.915004        -0.032305         0.946573
 C        -2.748267         0.794086         0.047410
 C        -1.525246         1.024983        -0.899341
 O        -1.643939         2.292213        -1.578196
 C        -2.643648         3.124871        -0.747907
 C        -2.683907         2.353743         0.566234
 C        -1.232864         2.236834         1.179917
 H         1.191216         1.426104         0.678835
 H        -1.531786        -0.973692         0.587605
 H        -2.045454        -0.113574         2.045802
 H        -3.727260         0.456534        -0.264116
 H        -1.280245         0.231848        -1.566333
 H        -2.228935         4.126888        -0.879707
 H        -3.616523         3.176727        -1.313472
 H        -3.378918         2.624906         1.271888
 H        -0.635229         3.014231         0.807028
 H        -1.338627         2.201402         2.302651
