19
Iteration:  3444charge 0 multiplicity 1
 O         0.653364         0.532447         0.615183
 C        -0.740166         0.998576         0.466287
 C        -1.795146        -0.002960         0.897285
 C        -2.714253         0.871188        -0.022388
 C        -1.566591         1.018843        -0.883395
 O        -1.661639         2.305252        -1.482641
 C        -2.652623         3.048426        -0.711489
 C        -2.709192         2.330244         0.647465
 C        -1.319398         2.336131         1.106013
 H         1.102047         1.269445         0.131727
 H        -1.520366        -0.971584         0.800620
 H        -1.823672         0.100311         1.995161
 H        -3.642016         0.635674        -0.537926
 H        -1.188453         0.231634        -1.646347
 H        -2.415779         4.143404        -0.891527
 H        -3.701482         2.785107        -1.167649
 H        -3.538806         2.565385         1.417127
 H        -0.761842         3.127164         0.828964
 H        -1.224995         2.317205         2.229236
