19
Iteration:  1589charge 0 multiplicity 1
 O         0.665938         0.645525         0.468468
 C        -0.748488         1.020800         0.464448
 C        -1.887155         0.016304         0.984405
 C        -2.785407         0.821456         0.024860
 C        -1.554154         1.055538        -0.800648
 O        -1.548082         2.306294        -1.433008
 C        -2.619970         3.073590        -0.826285
 C        -2.740732         2.248623         0.532278
 C        -1.247604         2.292959         1.141338
 H         0.925065         0.666587         1.413064
 H        -1.802901        -1.134571         0.618087
 H        -2.356068        -0.000788         1.988542
 H        -3.678982         0.299572        -0.186228
 H        -1.281825         0.374479        -1.604580
 H        -2.438359         4.111775        -0.679298
 H        -3.523726         3.038500        -1.393713
 H        -3.584402         2.588556         1.191411
 H        -0.574256         3.061923         0.839129
 H        -1.375546         2.234426         2.268313
