19
Iteration:  3627charge 0 multiplicity 1
 O         0.552034         0.676541         0.540785
 C        -0.747756         1.025664         0.483560
 C        -1.826339         0.017100         0.973428
 C        -2.761482         0.811872         0.050636
 C        -1.584458         1.034526        -0.873376
 O        -1.619576         2.274417        -1.555548
 C        -2.546161         3.047568        -0.758573
 C        -2.682534         2.239952         0.559713
 C        -1.264901         2.275946         1.209962
 H         1.140092         1.347841         0.224382
 H        -1.732936        -1.049672         0.722850
 H        -2.068240        -0.111025         2.099755
 H        -3.719984         0.453875        -0.250989
 H        -1.263814         0.279121        -1.615457
 H        -2.139085         4.102159        -0.499553
 H        -3.467912         3.263770        -1.382995
 H        -3.553521         2.527999         1.199876
 H        -0.649074         3.227267         1.003594
 H        -1.317938         2.126048         2.261509
