19
Iteration:  2892charge 0 multiplicity 1
 O         0.625185         0.779186         0.435696
 C        -0.778515         0.969274         0.552505
 C        -1.894595        -0.063563         0.969433
 C        -2.741105         0.780995         0.086800
 C        -1.553963         1.081411        -0.907088
 O        -1.647177         2.341470        -1.544157
 C        -2.541649         3.023201        -0.799930
 C        -2.676434         2.269163         0.572304
 C        -1.274124         2.293940         1.205288
 H         0.805457         0.198724         1.190648
 H        -1.777136        -1.049396         0.503548
 H        -2.148259        -0.310949         2.079752
 H        -3.724698         0.338041        -0.130249
 H        -1.147016         0.318364        -1.462962
 H        -2.141408         3.991221        -0.318952
 H        -3.512757         3.038076        -1.364263
 H        -3.462797         2.688138         1.137500
 H        -0.550914         3.128350         0.925441
 H        -1.278789         2.303417         2.285095
