19
Iteration:   325
 O         0.585315         0.668581         0.593785
 C        -0.775297         0.930150         0.529655
 C        -1.815727        -0.036827         0.992194
 C        -2.796912         0.841940         0.097779
 C        -1.528491         1.046204        -0.899527
 O        -1.680413         2.301016        -1.539503
 C        -2.601555         3.051296        -0.792337
 C        -2.640346         2.351842         0.459326
 C        -1.221120         2.263424         1.122356
 H         0.986321         1.160487         1.340912
 H        -1.861896        -1.127055         0.576887
 H        -1.832790        -0.218252         2.063934
 H        -3.619012         0.342354        -0.315605
 H        -1.306956         0.284482        -1.580448
 H        -2.230722         4.138563        -0.616347
 H        -3.504121         3.238590        -1.358318
 H        -3.425388         2.753019         1.098358
 H        -0.613843         3.246161         0.881904
 H        -1.333929         2.107984         2.195139
