19
Iteration:   597
 O         0.560249         0.850364         0.482120
 C        -0.789354         0.895087         0.562307
 C        -1.810598        -0.114059         1.008499
 C        -2.833346         0.844076         0.127650
 C        -1.684051         1.012784        -0.912421
 O        -1.489694         2.243118        -1.540680
 C        -2.501883         3.081426        -0.855125
 C        -2.628494         2.320877         0.514093
 C        -1.294482         2.208562         1.267907
 H         0.893775         1.769040         0.252928
 H        -1.930566        -1.097600         0.444816
 H        -2.068788        -0.033777         2.044294
 H        -3.830380         0.439962        -0.004085
 H        -1.507179         0.182734        -1.597721
 H        -2.061787         4.063468        -0.667048
 H        -3.324738         3.174372        -1.485579
 H        -3.614516         2.639164         1.161125
 H        -0.602023         3.085695         1.194150
 H        -1.386143         2.111400         2.310228
