19
Iteration:  2619charge 0 multiplicity 1
 O         0.555510         0.750938         0.490801
 C        -0.775823         0.956711         0.509987
 C        -1.896962         0.006014         0.971474
 C        -2.787211         0.819912         0.109039
 C        -1.486932         0.994800        -0.885221
 O        -1.601150         2.283839        -1.518766
 C        -2.505851         3.013387        -0.786649
 C        -2.698671         2.269599         0.577534
 C        -1.279658         2.273569         1.186709
 H         0.917136         1.615286         0.261597
 H        -1.670506        -0.955352         0.568523
 H        -2.168663        -0.216890         2.046712
 H        -3.746005         0.435118        -0.088032
 H        -1.222083         0.204774        -1.580236
 H        -2.114603         4.061104        -0.759768
 H        -3.500005         2.947895        -1.137782
 H        -3.512850         2.733179         1.168622
 H        -0.584229         3.142928         0.818244
 H        -1.310013         2.282545         2.227511
