19
Iteration:  4294charge 0 multiplicity 1
 O         0.646504         0.642462         0.610678
 C        -0.762961         1.011153         0.481376
 C        -1.897996        -0.031116         0.928088
 C        -2.756148         0.856131         0.057818
 C        -1.535068         0.988558        -0.913812
 O        -1.594498         2.291643        -1.538185
 C        -2.646910         3.022745        -0.727554
 C        -2.627071         2.324510         0.581196
 C        -1.309094         2.333285         1.193169
 H         1.214486         1.165529        -0.026912
 H        -1.909852        -1.027035         0.459429
 H        -2.321940        -0.197502         1.921080
 H        -3.687719         0.429335        -0.329283
 H        -1.265188         0.212258        -1.661266
 H        -2.312131         4.096104        -0.613322
 H        -3.644930         3.123258        -1.417885
 H        -3.388021         2.672122         1.389222
 H        -0.708334         3.234084         0.898499
 H        -1.197227         2.099516         2.295403
