19
Iteration:  4928charge 0 multiplicity 1
 O         0.565945         0.529489         0.670239
 C        -0.699313         0.967702         0.461945
 C        -1.765326        -0.023748         0.965923
 C        -2.776628         0.836815        -0.016859
 C        -1.586060         1.009165        -0.919118
 O        -1.700609         2.336037        -1.546744
 C        -2.588944         3.059575        -0.759101
 C        -2.660632         2.350286         0.556545
 C        -1.254832         2.358664         1.200838
 H         1.238979         1.236377         0.482265
 H        -1.631616        -0.981182         0.503359
 H        -2.115915        -0.031204         1.972960
 H        -3.648214         0.463739        -0.558539
 H        -1.309349         0.210987        -1.622710
 H        -2.128477         4.066092        -0.562276
 H        -3.619989         3.115560        -1.161859
 H        -3.378280         2.700495         1.350157
 H        -0.707518         3.168575         0.740614
 H        -1.382464         2.312956         2.273476
