19
Iteration:  4117charge 0 multiplicity 1
 O         0.586487         0.660257         0.597001
 C        -0.792018         0.963164         0.454039
 C        -1.785773        -0.016655         0.907077
 C        -2.764611         0.827357         0.102299
 C        -1.616671         1.056337        -0.877549
 O        -1.626912         2.268222        -1.523323
 C        -2.528729         3.071125        -0.789950
 C        -2.680987         2.298541         0.553524
 C        -1.287020         2.275040         1.216843
 H         1.054895         1.502271         0.297011
 H        -1.653302        -1.026068         0.512976
 H        -2.174529        -0.090106         1.917547
 H        -3.770304         0.501523        -0.060910
 H        -1.342845         0.188218        -1.547175
 H        -2.163589         4.070480        -0.914097
 H        -3.395238         2.940696        -1.312863
 H        -3.486292         2.791875         1.139731
 H        -0.655749         3.229839         0.960128
 H        -1.113321         2.149995         2.308923
