19
Iteration:   373
 O         0.536132         0.448338         0.651789
 C        -0.766899         1.013193         0.498813
 C        -1.813799         0.045188         1.027138
 C        -2.686831         0.779352         0.035868
 C        -1.447853         1.082194        -0.870057
 O        -1.646392         2.424977        -1.477864
 C        -2.722740         3.016681        -0.838940
 C        -2.670555         2.342906         0.525780
 C        -1.231142         2.294255         1.053276
 H         1.105631         1.198233         0.423735
 H        -1.648079        -1.004972         0.961332
 H        -2.162903         0.135393         2.165397
 H        -3.722977         0.433379        -0.361010
 H        -0.985730         0.449545        -1.747095
 H        -2.691406         4.053142        -0.871605
 H        -3.598658         2.744436        -1.382439
 H        -3.375682         2.531649         1.327944
 H        -0.730071         3.110479         0.625207
 H        -1.164009         2.305038         2.170147
