19
Iteration:  4490charge 0 multiplicity 1
 O         0.570942         0.587349         0.651981
 C        -0.789838         0.975761         0.501018
 C        -1.841763        -0.073738         0.970499
 C        -2.794018         0.791097         0.087486
 C        -1.515056         1.001351        -0.935943
 O        -1.608293         2.379341        -1.535427
 C        -2.662968         3.077760        -0.769277
 C        -2.654044         2.318414         0.528164
 C        -1.207524         2.346013         1.102786
 H         1.171408         1.360929         0.646288
 H        -1.851157        -0.960156         0.329816
 H        -2.061197        -0.241138         2.038453
 H        -3.722674         0.388839        -0.101316
 H        -1.044870         0.295415        -1.582998
 H        -2.261867         4.185919        -0.633338
 H        -3.693457         3.027979        -1.091866
 H        -3.557942         2.458793         1.222010
 H        -0.535729         3.266500         0.611108
 H        -1.079519         2.324899         2.154301
