19
Iteration:  2509charge 0 multiplicity 1
 O         0.641558         0.582474         0.601632
 C        -0.765728         0.929865         0.488359
 C        -1.785976         0.026137         0.990050
 C        -2.742211         0.781865         0.033853
 C        -1.579423         1.021595        -0.888576
 O        -1.609963         2.364130        -1.501984
 C        -2.669757         3.023035        -0.816729
 C        -2.766591         2.312840         0.607890
 C        -1.244757         2.334010         1.124743
 H         1.218737         1.390929         0.511164
 H        -1.690293        -0.994820         0.682057
 H        -2.073106        -0.014584         2.067740
 H        -3.675573         0.353111        -0.346393
 H        -1.223789         0.367736        -1.649128
 H        -2.306586         4.102946        -0.635441
 H        -3.644833         2.880030        -1.425444
 H        -3.459070         2.812686         1.271457
 H        -0.592345         3.111745         0.572029
 H        -1.221264         2.504140         2.159072
