19
Iteration:  1968
 O         0.589012         0.672791         0.528900
 C        -0.781909         0.946467         0.536096
 C        -1.787132        -0.047296         1.059183
 C        -2.803112         0.761603         0.032722
 C        -1.562747         1.059232        -0.803428
 O        -1.582202         2.423933        -1.501959
 C        -2.654629         3.053810        -0.823575
 C        -2.720434         2.314440         0.523716
 C        -1.204231         2.219402         1.138361
 H         1.045176         1.182206        -0.136493
 H        -1.684393        -0.993035         0.538129
 H        -2.080742        -0.229077         2.104391
 H        -3.737485         0.248611        -0.157537
 H        -1.045219         0.362592        -1.480961
 H        -2.382627         4.167490        -0.728934
 H        -3.529956         2.907333        -1.436837
 H        -3.475048         2.700313         1.150260
 H        -0.637012         3.040633         0.853137
 H        -1.226999         2.194001         2.184594
