19
Iteration:  2010
 O         0.605386         0.697732         0.508461
 C        -0.787320         1.027075         0.508015
 C        -1.831065        -0.035661         0.967142
 C        -2.782295         0.775778         0.095022
 C        -1.562936         1.054946        -0.891613
 O        -1.631626         2.262153        -1.563776
 C        -2.548282         3.091982        -0.753536
 C        -2.718074         2.286443         0.539729
 C        -1.250073         2.234498         1.204121
 H         1.038342         1.546896         0.608758
 H        -1.532725        -0.985135         0.596125
 H        -2.079180        -0.052872         2.073113
 H        -3.763259         0.381322        -0.237080
 H        -1.307896         0.254249        -1.604495
 H        -2.150855         4.139076        -0.626023
 H        -3.481803         3.109298        -1.230655
 H        -3.517232         2.655923         1.132546
 H        -0.633228         3.131273         1.032305
 H        -1.208778         2.054992         2.381673
