19
Iteration:  3895
 O         0.593954         0.535279         0.661344
 C        -0.748954         1.066835         0.455128
 C        -1.852654        -0.038308         0.957525
 C        -2.728006         0.809166         0.000288
 C        -1.493865         1.063627        -0.857962
 O        -1.679304         2.323374        -1.486369
 C        -2.608741         3.054355        -0.776740
 C        -2.767051         2.256409         0.575017
 C        -1.194278         2.344671         1.113680
 H         1.105638         1.327057         0.329154
 H        -1.480578        -0.965462         0.495704
 H        -1.990392        -0.007331         2.041771
 H        -3.822297         0.504349        -0.277159
 H        -1.459799         0.288107        -1.630501
 H        -2.253110         4.135696        -0.768627
 H        -3.671453         3.167464        -1.291455
 H        -3.586127         2.665247         1.157000
 H        -0.615668         3.110856         0.704529
 H        -0.955250         2.165847         2.116762
