19
Iteration:  3373
 O         0.677966         0.654663         0.569524
 C        -0.719867         0.994205         0.544441
 C        -1.771194         0.024492         0.969816
 C        -2.835623         0.822332         0.014922
 C        -1.554718         1.024527        -0.881170
 O        -1.717076         2.308948        -1.600611
 C        -2.575426         3.127254        -0.714563
 C        -2.724004         2.251901         0.561236
 C        -1.289408         2.194471         1.161130
 H         1.297380         1.368254         0.318606
 H        -1.734491        -1.087261         0.648992
 H        -1.983906        -0.121514         2.025798
 H        -3.885391         0.447692        -0.124600
 H        -1.212233         0.306893        -1.578278
 H        -2.067907         4.128207        -0.554458
 H        -3.523683         3.266504        -1.258766
 H        -3.430117         2.450549         1.319291
 H        -0.685506         3.157174         0.884438
 H        -1.323317         2.210277         2.216395
