19
Iteration:  2877charge 0 multiplicity 1
 O         0.615754         0.734496         0.525643
 C        -0.756231         0.973237         0.478338
 C        -1.767205        -0.075351         0.973844
 C        -2.734168         0.793305         0.025465
 C        -1.545725         0.983270        -0.884415
 O        -1.656979         2.289034        -1.525659
 C        -2.642725         3.154881        -0.777964
 C        -2.709274         2.330457         0.549091
 C        -1.272784         2.299685         1.251122
 H         0.856673        -0.079920         0.925665
 H        -1.602157        -1.127352         0.687013
 H        -2.109504         0.056267         1.977514
 H        -3.716570         0.512053        -0.321936
 H        -1.288693         0.280623        -1.753122
 H        -2.139343         4.109733        -0.780330
 H        -3.575972         3.374301        -1.324920
 H        -3.581381         2.502079         1.200051
 H        -0.681310         3.188898         0.901495
 H        -1.179337         2.117068         2.373383
