19
Iteration:   386charge 0 multiplicity 1
 O         0.591960         0.569245         0.724928
 C        -0.711712         0.907406         0.452387
 C        -1.792513        -0.015249         1.022248
 C        -2.748661         0.849047         0.030622
 C        -1.529961         1.037962        -0.913066
 O        -1.586386         2.378134        -1.538709
 C        -2.742986         3.091959        -0.834794
 C        -2.744687         2.320600         0.576072
 C        -1.241776         2.283137         1.093659
 H         1.276492         0.999676         0.155645
 H        -1.668091        -1.037833         0.752166
 H        -1.959819         0.273829         2.097844
 H        -3.655784         0.339063        -0.391168
 H        -1.336032         0.150226        -1.607660
 H        -2.405475         4.105539        -0.775076
 H        -3.719403         3.048156        -1.361456
 H        -3.553318         2.741355         1.285664
 H        -0.621285         3.098517         0.832030
 H        -1.114587         2.240734         2.185066
