19
Iteration:  1620charge 0 multiplicity 1
 O         0.528172         0.602104         0.604663
 C        -0.731110         0.998697         0.458137
 C        -1.827744        -0.035440         0.994321
 C        -2.668204         0.831022         0.037726
 C        -1.470787         1.101299        -0.882060
 O        -1.705496         2.346418        -1.577501
 C        -2.646788         3.075272        -0.743879
 C        -2.648607         2.282401         0.532604
 C        -1.233402         2.329169         1.121446
 H         0.701990         0.580679         1.562264
 H        -1.693536        -1.066959         0.608237
 H        -2.166318        -0.345682         2.025279
 H        -3.565527         0.441034        -0.208236
 H        -1.190107         0.285448        -1.571009
 H        -2.300275         4.080582        -0.611827
 H        -3.673174         2.944468        -1.376282
 H        -3.466370         2.439115         1.201933
 H        -0.602164         3.044174         0.777712
 H        -1.302521         2.256572         2.203409
