19
Iteration:  4082
 O         0.602574         0.651848         0.557139
 C        -0.715902         0.922064         0.509664
 C        -1.875722        -0.019164         0.965049
 C        -2.733149         0.806237         0.046358
 C        -1.570628         1.053250        -0.878059
 O        -1.681389         2.272102        -1.512518
 C        -2.530134         3.072830        -0.778841
 C        -2.684260         2.339080         0.556688
 C        -1.255058         2.282756         1.173727
 H         1.118250         1.513166         0.483155
 H        -1.790645        -1.028600         0.618975
 H        -2.281415         0.056226         2.002287
 H        -3.685194         0.369210        -0.248590
 H        -1.205628         0.361373        -1.627399
 H        -2.094471         4.063537        -0.778745
 H        -3.474937         3.169960        -1.109036
 H        -3.569658         2.480179         1.115081
 H        -0.780820         3.276811         0.777042
 H        -1.410205         2.281516         2.192478
