19
Iteration:  1089
 O         0.717145         0.913320         0.634561
 C        -0.708699         0.957417         0.480696
 C        -1.958534        -0.059670         0.915869
 C        -2.861875         0.846256         0.063865
 C        -1.618108         1.034261        -0.910731
 O        -1.647764         2.224568        -1.568286
 C        -2.414152         3.087290        -0.755790
 C        -2.703704         2.255742         0.587659
 C        -1.323723         2.181837         1.171670
 H         1.035859        -0.041115         0.668389
 H        -1.624139        -0.994961         0.479137
 H        -2.179365        -0.190504         1.961437
 H        -3.864101         0.571842        -0.275214
 H        -1.521582         0.373266        -1.767270
 H        -1.845635         4.020720        -0.565003
 H        -3.412252         3.232448        -1.398850
 H        -3.491147         2.830605         1.171047
 H        -0.670925         3.149518         0.955544
 H        -1.285298         2.029771         2.344995
