19
Iteration:   397charge 0 multiplicity 1
 O         0.668852         0.635434         0.750592
 C        -0.754928         0.960239         0.458771
 C        -1.847307         0.009847         0.963440
 C        -2.765144         0.834802         0.075249
 C        -1.598370         1.049849        -0.915200
 O        -1.611945         2.293782        -1.547614
 C        -2.625037         3.065791        -0.756796
 C        -2.712120         2.285872         0.480529
 C        -1.221181         2.318984         1.132213
 H         1.098467         1.032055        -0.014877
 H        -1.788690        -0.974286         0.531775
 H        -1.955921        -0.245218         2.061984
 H        -3.780490         0.524267        -0.272496
 H        -1.591839         0.293517        -1.758685
 H        -2.287379         4.080171        -0.637619
 H        -3.559406         3.058044        -1.338831
 H        -3.597897         2.545813         1.187503
 H        -0.643112         3.141745         0.803873
 H        -1.325347         2.189451         2.212412
