19
Iteration:  4877
 O         0.541888         0.678316         0.546401
 C        -0.794602         0.969645         0.486581
 C        -1.856956        -0.080382         0.985084
 C        -2.770903         0.850379         0.019983
 C        -1.579073         1.014630        -0.890839
 O        -1.520079         2.263685        -1.468656
 C        -2.550312         3.089252        -0.781640
 C        -2.737233         2.338515         0.564134
 C        -1.227830         2.305186         1.192973
 H         1.014568         1.328464        -0.055802
 H        -1.816320        -1.041481         0.548399
 H        -2.124498        -0.147209         2.071398
 H        -3.777931         0.438616        -0.054383
 H        -1.367508         0.316843        -1.678762
 H        -2.129980         4.096826        -0.651331
 H        -3.473878         2.968505        -1.366389
 H        -3.466515         2.501788         1.290246
 H        -0.685260         3.238872         0.785153
 H        -1.132704         2.196078         2.229119
