19
Iteration:  1450
 O         0.549285         0.567985         0.664005
 C        -0.770325         1.002877         0.524074
 C        -1.844860        -0.033274         0.986583
 C        -2.756758         0.773097         0.068421
 C        -1.510901         1.064300        -0.938322
 O        -1.528636         2.396705        -1.453139
 C        -2.660709         3.024888        -0.778090
 C        -2.661608         2.327848         0.505542
 C        -1.272387         2.328228         1.077022
 H         0.929744         1.069789        -0.133565
 H        -1.874850        -1.030419         0.583743
 H        -1.819170        -0.183941         2.031567
 H        -3.739980         0.346946        -0.298119
 H        -1.390105         0.307778        -1.671961
 H        -2.560975         4.150326        -0.834952
 H        -3.678870         2.884410        -1.339862
 H        -3.436333         2.587068         1.265800
 H        -0.554848         3.146520         0.858164
 H        -1.285259         2.249864         2.105309
