19
Iteration:   284
 O         0.579709         0.867657         0.453373
 C        -0.761223         1.023055         0.510660
 C        -1.921177        -0.030746         0.912859
 C        -2.789896         0.848790         0.044716
 C        -1.530363         0.944167        -0.816107
 O        -1.715492         2.156746        -1.609184
 C        -2.390063         3.047143        -0.723024
 C        -2.687828         2.298915         0.521853
 C        -1.275138         2.262609         1.296967
 H         0.988472         1.197621         1.245721
 H        -1.783863        -1.089321         0.503602
 H        -2.160278        -0.287397         2.021791
 H        -3.786650         0.642980        -0.374713
 H        -1.173973         0.086890        -1.460429
 H        -1.732000         3.808795        -0.385297
 H        -3.265003         3.478271        -1.220357
 H        -3.400896         2.848957         1.071251
 H        -0.573005         3.008166         1.036016
 H        -1.492454         2.006024         2.342008
