19
Iteration:   234charge 0 multiplicity 1
 O         0.597542         0.660295         0.499105
 C        -0.724858         1.000810         0.465095
 C        -1.882338         0.045663         1.005410
 C        -2.715532         0.853700         0.064578
 C        -1.557651         1.037121        -0.898035
 O        -1.536626         2.288734        -1.461303
 C        -2.636836         3.062075        -0.796617
 C        -2.716387         2.256243         0.562213
 C        -1.264932         2.293160         1.116952
 H         0.829265         0.403289         1.426728
 H        -1.744623        -0.923292         0.617820
 H        -2.080843        -0.118086         2.047229
 H        -3.752469         0.531729        -0.286717
 H        -1.375118         0.302611        -1.740713
 H        -2.434149         4.193981        -0.839252
 H        -3.612555         2.882711        -1.326395
 H        -3.432154         2.507220         1.423734
 H        -0.843094         3.283088         0.911413
 H        -1.354028         1.989089         2.193217
