19
Iteration:  3566
 O         0.562850         0.552728         0.664647
 C        -0.734633         0.994617         0.429148
 C        -1.791860        -0.000591         0.932685
 C        -2.727734         0.763537        -0.015101
 C        -1.561112         1.061310        -0.960873
 O        -1.621051         2.333610        -1.576053
 C        -2.674620         3.016897        -0.646380
 C        -2.686710         2.376308         0.678984
 C        -1.244803         2.349283         1.106701
 H         1.229572         1.188000         0.446566
 H        -1.708757        -1.048979         0.717013
 H        -1.993733         0.217596         1.962577
 H        -3.727802         0.421241        -0.397470
 H        -1.187216         0.229714        -1.650626
 H        -2.477204         4.072158        -0.584572
 H        -3.618644         2.682681        -1.244148
 H        -3.605890         2.647050         1.278675
 H        -0.651377         3.173475         0.766213
 H        -1.086188         2.314516         2.260255
