19
Iteration:  4499charge 0 multiplicity 1
 O         0.560253         0.593465         0.639916
 C        -0.767164         0.942734         0.497451
 C        -1.848168        -0.025845         0.949022
 C        -2.731512         0.796929         0.072513
 C        -1.467828         1.001431        -0.876978
 O        -1.683149         2.360634        -1.530207
 C        -2.590177         3.077614        -0.735913
 C        -2.671998         2.324266         0.564815
 C        -1.259282         2.315485         1.050614
 H         1.044646         1.429638         0.737472
 H        -1.775500        -1.023262         0.424091
 H        -2.067728        -0.193233         2.032525
 H        -3.698649         0.471836        -0.171482
 H        -1.207092         0.364092        -1.758436
 H        -2.405569         4.196000        -0.652212
 H        -3.489078         3.086251        -1.362121
 H        -3.530540         2.633451         1.188668
 H        -0.522167         3.092559         0.646763
 H        -1.165606         2.298698         2.177418
