19
Iteration:   297
 O         0.673962         0.871940         0.535538
 C        -0.799860         0.969590         0.466391
 C        -1.909314        -0.047107         0.942002
 C        -2.857738         0.832704         0.059957
 C        -1.612970         1.031870        -0.918975
 O        -1.673508         2.152119        -1.630584
 C        -2.360777         3.074049        -0.742812
 C        -2.653864         2.330395         0.623430
 C        -1.293268         2.194494         1.246033
 H         0.902992         1.266304         1.424207
 H        -1.843936        -1.011749         0.553040
 H        -2.044535         0.026119         2.080327
 H        -3.796422         0.316621        -0.370732
 H        -1.404355         0.098336        -1.611637
 H        -1.881307         4.006763        -0.780003
 H        -3.363989         3.297754        -1.256070
 H        -3.544230         2.678119         1.170724
 H        -0.868425         3.119956         1.118327
 H        -1.123828         2.002833         2.343611
