19
Iteration:  3303
 O         0.594233         0.664863         0.571110
 C        -0.743637         0.937480         0.477943
 C        -1.860326        -0.081444         0.990882
 C        -2.705144         0.791169         0.072411
 C        -1.512765         1.025896        -0.917009
 O        -1.635909         2.340357        -1.465193
 C        -2.754640         3.141678        -0.742395
 C        -2.627761         2.293373         0.538785
 C        -1.251394         2.269668         1.084540
 H         1.155973         1.364455         0.140673
 H        -1.709139        -1.031997         0.609493
 H        -2.062898        -0.217254         2.055997
 H        -3.766504         0.564273        -0.123515
 H        -0.924867         0.289746        -1.579121
 H        -2.415796         4.110345        -0.646351
 H        -3.673830         3.168026        -1.309900
 H        -3.413983         2.576860         1.306225
 H        -0.715141         3.165306         0.796064
 H        -1.155902         2.207746         2.268345
