19
Iteration:   237charge 0 multiplicity 1
 O         0.614985         0.656503         0.477856
 C        -0.755020         1.014020         0.465518
 C        -1.873974         0.067596         1.001783
 C        -2.729918         0.866878         0.085749
 C        -1.549008         1.018509        -0.883423
 O        -1.530294         2.289420        -1.483779
 C        -2.634084         3.050962        -0.796225
 C        -2.719265         2.264726         0.544462
 C        -1.286472         2.275639         1.143196
 H         0.821742         0.438897         1.411915
 H        -1.634846        -1.031521         0.607131
 H        -2.086900        -0.076684         2.064139
 H        -3.694967         0.558862        -0.218755
 H        -1.388117         0.351530        -1.664839
 H        -2.316969         4.140188        -0.708300
 H        -3.545607         2.929653        -1.291131
 H        -3.466014         2.455561         1.335861
 H        -0.860487         3.324479         0.961473
 H        -1.418622         1.896811         2.129553
