19
Iteration:  4089
 O         0.624128         0.662636         0.555595
 C        -0.787729         0.925989         0.462332
 C        -1.872519        -0.080701         0.988481
 C        -2.735539         0.828712         0.084409
 C        -1.520203         1.036040        -0.844248
 O        -1.661788         2.277393        -1.552785
 C        -2.566386         3.106937        -0.729604
 C        -2.676046         2.282597         0.500045
 C        -1.271213         2.332238         1.167009
 H         1.112384         1.510566         0.487380
 H        -1.739122        -1.137322         0.656874
 H        -2.242255        -0.047076         2.024202
 H        -3.783296         0.633026        -0.283710
 H        -1.286112         0.206326        -1.510787
 H        -2.111114         4.141768        -0.660343
 H        -3.554258         3.199331        -1.419737
 H        -3.452834         2.766916         1.157286
 H        -0.724994         3.194030         0.946587
 H        -1.274425         2.121345         2.287972
