19
Iteration:  4454
 O         0.596412         0.577816         0.640218
 C        -0.727204         0.980648         0.446396
 C        -1.884267        -0.009593         0.982668
 C        -2.720071         0.884135         0.052570
 C        -1.478035         1.038600        -0.912026
 O        -1.618429         2.316859        -1.519798
 C        -2.698734         3.050299        -0.734359
 C        -2.691364         2.324283         0.518078
 C        -1.265655         2.269867         1.161979
 H         1.159736         1.139671         0.049635
 H        -1.841564        -1.052201         0.535697
 H        -1.952511        -0.075088         2.104401
 H        -3.687005         0.437292        -0.302702
 H        -0.976130         0.204766        -1.606293
 H        -2.289535         4.109893        -0.870349
 H        -3.756150         3.202801        -1.225744
 H        -3.475852         2.645941         1.200880
 H        -0.789300         3.278778         0.928489
 H        -1.270670         2.148777         2.352750
