19
Iteration:   423charge 0 multiplicity 1
 O         0.554761         0.804411         0.636438
 C        -0.829910         0.971431         0.514806
 C        -1.839645        -0.115526         0.900201
 C        -2.779187         0.797957         0.011030
 C        -1.529058         1.017640        -0.810688
 O        -1.677968         2.149107        -1.676003
 C        -2.471951         3.130529        -0.752381
 C        -2.704330         2.378557         0.607568
 C        -1.223622         2.283175         1.292894
 H         0.924900         1.256211        -0.131920
 H        -1.654961        -1.153910         0.487769
 H        -2.007458        -0.310993         1.901253
 H        -3.700503         0.546619        -0.459215
 H        -1.358225         0.214115        -1.457013
 H        -1.716135         4.020299        -0.710094
 H        -3.466945         3.416067        -1.287268
 H        -3.530175         2.783518         1.245442
 H        -0.548898         3.067798         0.799071
 H        -1.258553         2.154351         2.361574
