19
Iteration:  2354
 O         0.586068         0.644830         0.577002
 C        -0.779534         0.976009         0.487156
 C        -1.798196        -0.030448         0.945639
 C        -2.801276         0.778840         0.023309
 C        -1.530807         1.021396        -0.819588
 O        -1.635305         2.312167        -1.497045
 C        -2.669885         3.052096        -0.791175
 C        -2.717888         2.337855         0.601198
 C        -1.173285         2.291135         1.103670
 H         1.003388         1.485199         0.810932
 H        -1.624079        -1.012934         0.606954
 H        -1.790108         0.033665         2.017772
 H        -3.764643         0.485147        -0.467474
 H        -1.126207         0.324941        -1.512215
 H        -2.250134         4.104885        -0.825000
 H        -3.732573         2.908485        -1.223673
 H        -3.529123         2.609654         1.251864
 H        -0.625469         3.107982         0.567358
 H        -0.941956         2.331295         2.166618
