19
Iteration:   756charge 0 multiplicity 1
 O         0.582087         0.695638         0.368723
 C        -0.800414         1.010584         0.573662
 C        -1.869683        -0.040941         1.021943
 C        -2.821282         0.809341         0.041658
 C        -1.510875         1.018363        -0.793754
 O        -1.553365         2.233415        -1.569432
 C        -2.447113         3.104405        -0.761183
 C        -2.766181         2.278097         0.541237
 C        -1.344807         2.300374         1.292585
 H         1.071291         1.528804         0.118542
 H        -1.693967        -0.927952         0.427371
 H        -2.022916        -0.188855         2.075060
 H        -3.675184         0.302836        -0.501432
 H        -1.225788         0.123665        -1.330403
 H        -1.942884         4.063040        -0.607886
 H        -3.198677         3.280359        -1.436362
 H        -3.553436         2.565656         1.114860
 H        -0.769611         3.244251         1.175115
 H        -1.540915         2.194498         2.452831
