19
Iteration:  4337
 O         0.614456         0.508261         0.630546
 C        -0.752772         0.934908         0.523245
 C        -1.819843        -0.016202         0.942653
 C        -2.726501         0.784969         0.038866
 C        -1.508387         1.056841        -0.918191
 O        -1.639773         2.353590        -1.515522
 C        -2.661966         3.066742        -0.747675
 C        -2.738642         2.302184         0.573792
 C        -1.215776         2.376651         1.079052
 H         1.105088         1.341102         0.395271
 H        -1.702911        -1.059331         0.579499
 H        -1.883211         0.075352         2.040154
 H        -3.780672         0.557287        -0.078478
 H        -1.055211         0.309618        -1.596162
 H        -2.416410         4.174951        -0.643639
 H        -3.707916         3.217298        -1.227370
 H        -3.690307         2.605116         1.180287
 H        -0.764169         3.357528         0.810792
 H        -1.424739         2.365826         2.072856
