19
Iteration:  2699
 O         0.658377         0.553548         0.691764
 C        -0.682171         0.984764         0.558482
 C        -1.855569        -0.045619         0.983250
 C        -2.748225         0.842873         0.007181
 C        -1.601473         1.094668        -0.928721
 O        -1.739919         2.324645        -1.548277
 C        -2.668700         3.042314        -0.761753
 C        -2.634924         2.276822         0.495154
 C        -1.211155         2.316611         1.095459
 H         1.162266         1.369158         0.705004
 H        -1.739631        -0.980911         0.520856
 H        -2.043068        -0.099913         2.006113
 H        -3.751914         0.368293        -0.232900
 H        -0.989164         0.368772        -1.634998
 H        -2.303255         4.025794        -0.777895
 H        -3.695513         3.154406        -1.084542
 H        -3.460820         2.713240         1.192479
 H        -0.695672         3.185780         0.659967
 H        -1.169427         2.505141         2.236019
