19
Iteration:  4892
 O         0.570924         0.653176         0.544245
 C        -0.815119         0.942877         0.512788
 C        -1.873597         0.015733         0.954224
 C        -2.822074         0.781874         0.086362
 C        -1.546185         1.029997        -0.854403
 O        -1.581496         2.361533        -1.499062
 C        -2.559003         3.026618        -0.783651
 C        -2.614939         2.323076         0.556919
 C        -1.270635         2.250637         1.132253
 H         1.120968         1.280410         0.014096
 H        -1.555432        -1.114920         0.743834
 H        -2.104758        -0.145310         2.061772
 H        -3.630356         0.572242        -0.610103
 H        -1.248732         0.080257        -1.405768
 H        -2.292402         4.087935        -0.666857
 H        -3.634993         3.074580        -1.308170
 H        -3.430545         2.927054         1.085102
 H        -0.589721         3.026240         1.061728
 H        -1.263048         2.341888         2.322670
