19
Iteration:   821
 O         0.573823         0.618563         0.792852
 C        -0.736766         0.947314         0.496905
 C        -1.869205        -0.056735         0.948897
 C        -2.698881         0.795651        -0.000383
 C        -1.518544         1.045976        -0.940008
 O        -1.741417         2.330205        -1.508132
 C        -2.655832         3.105734        -0.766736
 C        -2.685300         2.313153         0.537173
 C        -1.151999         2.377904         1.074332
 H         1.023414         0.450565        -0.017432
 H        -1.664087        -0.991455         0.573480
 H        -2.025575        -0.082466         1.995358
 H        -3.585198         0.472252        -0.622590
 H        -1.091963         0.451183        -1.738478
 H        -2.369138         4.181653        -0.682073
 H        -3.680222         3.017851        -1.122939
 H        -3.399120         2.435437         1.280272
 H        -0.448466         3.069805         0.671216
 H        -1.100994         2.287303         2.189616
