19
Iteration:  3315charge 0 multiplicity 1
 O         0.722191         0.661632         0.556226
 C        -0.706250         0.931017         0.512267
 C        -1.880689        -0.143953         0.932131
 C        -2.772616         0.798046         0.065626
 C        -1.555668         1.048303        -0.852627
 O        -1.637847         2.353503        -1.539525
 C        -2.638066         3.060250        -0.761909
 C        -2.772287         2.310248         0.613484
 C        -1.223108         2.366178         1.159656
 H         1.068655         1.450100         0.070926
 H        -1.912932        -1.102224         0.523170
 H        -2.152856        -0.069893         1.981899
 H        -3.748637         0.387234        -0.345128
 H        -1.537625         0.305690        -1.733241
 H        -2.328808         4.036021        -0.639430
 H        -3.563067         3.021503        -1.334994
 H        -3.565134         2.574063         1.354810
 H        -0.568016         3.165993         0.784712
 H        -1.265639         2.363740         2.323430
