19
Iteration:  3024
 O         0.639157         0.702512         0.578200
 C        -0.767156         1.012183         0.496087
 C        -1.825293        -0.042892         0.926030
 C        -2.830243         0.750082         0.020243
 C        -1.546884         1.028988        -0.866391
 O        -1.615592         2.307333        -1.527315
 C        -2.651380         3.099810        -0.674901
 C        -2.671556         2.303646         0.597524
 C        -1.232681         2.267483         1.132431
 H         1.092972         0.959071        -0.247678
 H        -1.706744        -1.109967         0.521862
 H        -2.090799        -0.140139         2.035099
 H        -3.803175         0.410156        -0.397616
 H        -1.208100         0.294760        -1.541577
 H        -2.123180         4.134515        -0.568407
 H        -3.602497         3.172397        -1.295348
 H        -3.481693         2.609162         1.220559
 H        -0.515064         3.227197         0.964081
 H        -1.450930         2.072645         2.200669
