19
Iteration:    34
 O         0.594243         0.562900         0.769391
 C        -0.741044         0.934799         0.525545
 C        -1.832117        -0.032147         0.926798
 C        -2.720395         0.824405        -0.007175
 C        -1.510993         1.118039        -1.030992
 O        -1.753079         2.399765        -1.491413
 C        -2.775317         3.071421        -0.797270
 C        -2.626554         2.310606         0.559468
 C        -1.069565         2.261454         1.048185
 H         0.693275         0.569156         1.750661
 H        -1.673262        -0.953479         0.402519
 H        -2.010824        -0.260987         1.976569
 H        -3.746503         0.585292        -0.299684
 H        -1.165935         0.475368        -1.848222
 H        -2.394788         4.078783        -0.653655
 H        -3.645880         3.138169        -1.361490
 H        -3.338765         2.605332         1.335878
 H        -0.516114         3.091510         0.683469
 H        -1.164685         2.224070         2.144289
