19
Iteration:  4325charge 0 multiplicity 1
 O         0.545230         0.558093         0.632818
 C        -0.728362         0.987417         0.457598
 C        -1.826572        -0.051936         1.034535
 C        -2.695817         0.802022         0.075543
 C        -1.514404         1.053619        -0.863686
 O        -1.630070         2.394715        -1.539242
 C        -2.706014         3.094849        -0.774519
 C        -2.659036         2.303301         0.513651
 C        -1.293019         2.308107         1.110662
 H         1.196177         1.123332         0.228709
 H        -1.674884        -1.082223         0.590739
 H        -2.152907        -0.184193         2.096729
 H        -3.532143         0.312366        -0.448992
 H        -1.267677         0.269028        -1.668743
 H        -2.290521         4.121385        -0.491441
 H        -3.598584         3.008925        -1.427015
 H        -3.328088         2.644320         1.387397
 H        -0.668536         3.192256         0.783501
 H        -1.066380         2.199569         2.083470
