19
Iteration:  4575charge 0 multiplicity 1
 O         0.658741         0.649453         0.603297
 C        -0.774940         1.006158         0.543588
 C        -1.878362        -0.012824         0.922176
 C        -2.823127         0.796438         0.101825
 C        -1.561195         1.031172        -0.938647
 O        -1.595927         2.274199        -1.502592
 C        -2.543440         3.071068        -0.765863
 C        -2.671916         2.303880         0.555262
 C        -1.297056         2.317063         1.163514
 H         1.058502         1.209873        -0.122114
 H        -1.755733        -0.982017         0.492431
 H        -2.311924        -0.271240         1.890317
 H        -3.716665         0.363058        -0.189758
 H        -1.454344         0.326430        -1.754803
 H        -1.944210         3.917981        -0.591173
 H        -3.528486         3.200172        -1.330237
 H        -3.471050         2.715192         1.115327
 H        -0.780851         3.199663         0.896899
 H        -1.311419         2.202873         2.279806
