19
Iteration:  3992charge 0 multiplicity 1
 O         0.558475         0.622753         0.571776
 C        -0.786794         0.922236         0.577881
 C        -1.789832         0.010294         1.001408
 C        -2.803485         0.849211         0.019882
 C        -1.501976         1.027598        -0.929336
 O        -1.610374         2.296624        -1.553478
 C        -2.635147         3.076755        -0.718210
 C        -2.684261         2.375134         0.556436
 C        -1.244073         2.223079         1.143246
 H         0.950551         1.529580         0.415990
 H        -1.484050        -1.013243         0.673469
 H        -2.007820         0.053867         2.101297
 H        -3.801948         0.365386        -0.298766
 H        -1.122723         0.326188        -1.679542
 H        -2.208275         4.107843        -0.691095
 H        -3.552925         3.107568        -1.235323
 H        -3.683469         2.460710         0.988707
 H        -0.641396         3.188889         0.653447
 H        -1.088086         2.164414         2.238992
