19
Iteration:  1242
 O         0.566374         0.839325         0.606943
 C        -0.810899         0.975111         0.498590
 C        -1.834883        -0.043571         0.884080
 C        -2.799214         0.835839         0.039626
 C        -1.541718         0.992717        -0.894189
 O        -1.693616         2.258950        -1.632208
 C        -2.386572         3.095714        -0.720789
 C        -2.639758         2.257382         0.545381
 C        -1.321001         2.285237         1.273001
 H         0.968828         0.027517         0.305502
 H        -1.731149        -1.167864         0.575036
 H        -1.989941        -0.108963         2.030992
 H        -3.724573         0.337651        -0.155003
 H        -1.338241         0.089427        -1.456920
 H        -1.874385         4.055083        -0.480074
 H        -3.312081         3.426748        -1.142709
 H        -3.646939         2.633132         0.974747
 H        -0.697445         3.232561         1.151124
 H        -1.427209         1.949525         2.361124
