19
Iteration:   551
 O         0.547172         0.550498         0.672694
 C        -0.772302         1.012440         0.559118
 C        -1.840096        -0.020219         0.985872
 C        -2.677468         0.758216         0.025145
 C        -1.521818         1.040567        -0.880518
 O        -1.753756         2.334392        -1.629595
 C        -2.594847         3.109412        -0.826162
 C        -2.662473         2.242184         0.569382
 C        -1.228869         2.374526         1.193647
 H         1.229192         1.151651         0.276438
 H        -1.304240        -0.871602         0.445923
 H        -2.043256        -0.057872         2.055013
 H        -3.534013         0.360993        -0.400352
 H        -1.298357         0.361612        -1.657296
 H        -2.175701         4.065654        -0.644201
 H        -3.555699         3.277140        -1.280343
 H        -3.569337         2.530450         1.253680
 H        -0.645473         3.185428         0.775209
 H        -1.047848         2.444101         2.245208
