19
Iteration:  2249charge 0 multiplicity 1
 O         0.541286         0.669948         0.548153
 C        -0.757587         0.993839         0.444413
 C        -1.825757        -0.042061         1.058467
 C        -2.777440         0.833623         0.065299
 C        -1.532561         0.958776        -0.893766
 O        -1.565530         2.364314        -1.437233
 C        -2.668979         2.981978        -0.741286
 C        -2.637207         2.262692         0.482075
 C        -1.228371         2.326496         1.093617
 H         1.087879         1.389201         0.277369
 H        -1.909284        -1.052630         0.655978
 H        -1.847443        -0.050445         2.252066
 H        -3.763855         0.619317        -0.440931
 H        -1.244385         0.301834        -1.763091
 H        -2.614929         4.033101        -0.584129
 H        -3.646580         2.893205        -1.331952
 H        -3.353086         2.716044         1.312660
 H        -0.637771         3.250891         0.867209
 H        -1.360205         2.380475         2.149686
