19
Iteration:  4033charge 0 multiplicity 1
 O         0.619093         0.547457         0.699792
 C        -0.756555         0.935068         0.500962
 C        -1.764451        -0.005869         0.955839
 C        -2.766191         0.848539         0.034664
 C        -1.543466         1.041250        -0.915957
 O        -1.656759         2.317551        -1.532072
 C        -2.704211         3.096407        -0.789316
 C        -2.735058         2.337369         0.533413
 C        -1.185560         2.311601         1.158063
 H         1.165834         1.184060         0.258314
 H        -1.486699        -0.939975         0.358656
 H        -2.033429        -0.181822         2.002360
 H        -3.774767         0.541397        -0.324626
 H        -1.247640         0.228322        -1.626207
 H        -2.449600         4.182516        -0.762814
 H        -3.714440         3.022557        -1.307270
 H        -3.382480         2.839653         1.327844
 H        -0.645329         3.009783         0.620740
 H        -1.179257         2.313761         2.317452
