19
Iteration:  3683
 O         0.649881         0.633593         0.649713
 C        -0.742142         1.005553         0.453718
 C        -1.849610         0.003302         0.926341
 C        -2.875975         0.783346         0.054109
 C        -1.518354         1.020247        -0.848738
 O        -1.656169         2.267441        -1.582702
 C        -2.612926         3.051271        -0.760282
 C        -2.690127         2.380356         0.606215
 C        -1.245702         2.270776         1.157832
 H         1.303858         1.312664         0.349917
 H        -1.540733        -0.888281         0.359817
 H        -1.988565        -0.231109         2.046183
 H        -3.740568         0.407046        -0.411590
 H        -1.237050         0.413215        -1.741367
 H        -2.222560         4.136316        -0.645780
 H        -3.629773         2.894256        -1.219201
 H        -3.382702         2.838354         1.377379
 H        -0.621404         3.169306         0.829653
 H        -1.240925         2.166624         2.189088
