19
Iteration:   259
 O         0.579960         0.716012         0.375932
 C        -0.754194         0.989887         0.566973
 C        -1.817849        -0.055649         1.015878
 C        -2.791049         0.741852         0.041898
 C        -1.545736         1.053578        -0.840212
 O        -1.627703         2.230118        -1.596895
 C        -2.426068         3.129714        -0.814666
 C        -2.772971         2.329428         0.536321
 C        -1.354351         2.302481         1.349970
 H         1.100725         0.772983         1.190789
 H        -1.783614        -1.204675         0.702613
 H        -1.938675        -0.154239         2.091348
 H        -3.667424         0.342685        -0.378707
 H        -1.158760         0.355703        -1.516894
 H        -1.946537         4.157423        -0.713165
 H        -3.358504         3.241754        -1.299275
 H        -3.498308         2.927129         1.112908
 H        -0.764904         3.201451         0.933270
 H        -1.491714         2.143114         2.401081
