19
Iteration:  4816charge 0 multiplicity 1
 O         0.586251         0.539528         0.661867
 C        -0.705659         0.974818         0.497281
 C        -1.860521         0.008122         0.941190
 C        -2.792274         0.866696         0.027701
 C        -1.501867         1.120867        -0.863425
 O        -1.719928         2.320690        -1.662861
 C        -2.587006         3.027385        -0.715760
 C        -2.678487         2.298017         0.548536
 C        -1.190890         2.279334         1.170088
 H         1.284573         1.205661         0.544800
 H        -1.649513        -0.993769         0.455694
 H        -2.204050         0.087082         1.975570
 H        -3.729439         0.435316        -0.253891
 H        -1.353358         0.207964        -1.455543
 H        -2.322326         4.055703        -0.576358
 H        -3.545279         3.118959        -1.196484
 H        -3.444623         2.769301         1.235708
 H        -0.683189         3.211600         0.965451
 H        -1.230426         2.048881         2.322987
