19
Iteration:  1764charge 0 multiplicity 1
 O         0.644524         0.625489         0.641728
 C        -0.719836         0.994752         0.534770
 C        -1.794319         0.050108         0.854830
 C        -2.800495         0.799564         0.023860
 C        -1.535294         1.050099        -0.904942
 O        -1.729707         2.301965        -1.582036
 C        -2.610541         3.034509        -0.754334
 C        -2.684574         2.286229         0.621087
 C        -1.212355         2.326689         1.144129
 H         0.865871         0.447212         1.542446
 H        -1.629440        -0.981807         0.360027
 H        -2.121236        -0.058201         1.871577
 H        -3.726131         0.454576        -0.371542
 H        -1.489012         0.269671        -1.670862
 H        -2.217146         4.017056        -0.587479
 H        -3.633996         3.128147        -1.243549
 H        -3.445860         2.651370         1.382405
 H        -0.775865         3.168688         0.527539
 H        -0.989455         2.379396         2.271359
