19
Iteration:  3942
 O         0.555779         0.681183         0.583862
 C        -0.760482         0.999067         0.469961
 C        -1.793632        -0.070932         0.952745
 C        -2.789738         0.843887         0.044750
 C        -1.611948         1.050382        -0.810726
 O        -1.620483         2.256504        -1.602359
 C        -2.580809         3.109777        -0.812498
 C        -2.643011         2.319079         0.602113
 C        -1.227690         2.215019         1.251053
 H         1.009599         1.489502         0.228133
 H        -1.626354        -1.032698         0.524447
 H        -2.147853        -0.072242         1.984626
 H        -3.587698         0.437897        -0.537630
 H        -1.348885         0.195325        -1.428175
 H        -2.226582         4.123446        -0.712804
 H        -3.499937         3.181725        -1.448502
 H        -3.388861         2.659998         1.299262
 H        -0.697700         3.022158         0.945410
 H        -1.378500         2.210268         2.347248
