19
Iteration:   491
 O         0.553904         0.629014         0.612764
 C        -0.796350         0.941331         0.547005
 C        -1.891486        -0.065583         0.929530
 C        -2.788939         0.762458         0.049882
 C        -1.505390         1.097504        -0.873588
 O        -1.604246         2.324123        -1.512146
 C        -2.690741         3.052412        -0.801029
 C        -2.586158         2.338532         0.553260
 C        -1.199893         2.342413         1.105223
 H         0.975069         1.526684         0.673427
 H        -1.622266        -1.074219         0.738237
 H        -1.955547        -0.166286         2.028016
 H        -3.753176         0.286714        -0.374322
 H        -1.141827         0.265473        -1.569155
 H        -2.425612         4.156640        -0.621460
 H        -3.665367         2.957303        -1.417470
 H        -3.287081         2.625714         1.258721
 H        -0.447838         2.986575         0.592614
 H        -1.181669         2.372325         2.232345
