19
Iteration:  1755
 O         0.594608         0.640951         0.632043
 C        -0.787076         1.062583         0.404114
 C        -1.840069        -0.007021         0.942340
 C        -2.791828         0.793492         0.099607
 C        -1.517033         1.106651        -0.912935
 O        -1.676729         2.299798        -1.587127
 C        -2.596409         3.037977        -0.728571
 C        -2.661847         2.262576         0.583538
 C        -1.195882         2.293162         1.122802
 H         0.843800         0.571113         1.535858
 H        -1.454706        -0.978685         0.424562
 H        -2.070236        -0.292317         1.965260
 H        -3.784352         0.438052        -0.319743
 H        -1.243247         0.256108        -1.556064
 H        -2.307825         4.125484        -0.561646
 H        -3.716850         2.995086        -1.266133
 H        -3.548060         2.699826         1.203387
 H        -0.668462         3.132847         0.809225
 H        -0.870918         2.228556         2.183131
