19
Iteration:   379charge 0 multiplicity 1
 O         0.549907         0.500885         0.684885
 C        -0.741533         0.970893         0.490756
 C        -1.779234         0.010966         1.026844
 C        -2.725305         0.815707         0.040081
 C        -1.467326         1.038262        -0.902702
 O        -1.629139         2.418423        -1.504854
 C        -2.744453         3.058382        -0.856789
 C        -2.698203         2.380496         0.568554
 C        -1.250504         2.247137         1.069906
 H         1.219016         1.089342         0.302727
 H        -1.673742        -1.132142         0.990160
 H        -2.072336         0.267956         1.993325
 H        -3.576825         0.383584        -0.380332
 H        -1.087477         0.337888        -1.570946
 H        -2.505519         4.214022        -0.750325
 H        -3.645613         2.766303        -1.506242
 H        -3.404531         2.585417         1.391621
 H        -0.813441         3.208874         0.551046
 H        -1.110657         2.123788         2.136780
