19
Iteration:  3480
 O         0.622877         0.692072         0.561623
 C        -0.744395         0.925034         0.472680
 C        -1.834236        -0.129181         1.039232
 C        -2.747511         0.735754         0.055840
 C        -1.554780         1.038901        -0.809410
 O        -1.684528         2.334432        -1.569931
 C        -2.557182         3.145144        -0.781841
 C        -2.689196         2.343050         0.550032
 C        -1.290034         2.271407         1.164270
 H         0.993540         1.343922        -0.089524
 H        -1.603082        -1.147871         0.642454
 H        -1.997818         0.001502         2.068385
 H        -3.758758         0.634711        -0.422779
 H        -1.234083         0.328921        -1.601135
 H        -2.160279         4.099633        -0.587594
 H        -3.541838         3.272022        -1.346214
 H        -3.478761         2.624233         1.224742
 H        -0.749271         3.165435         0.950111
 H        -1.291465         2.105666         2.280429
