19
Iteration:  2503charge 0 multiplicity 1
 O         0.601408         0.601341         0.567165
 C        -0.790462         0.969042         0.509344
 C        -1.798274         0.011306         0.993532
 C        -2.743086         0.814365         0.075001
 C        -1.514501         1.038568        -0.939552
 O        -1.604590         2.313136        -1.476774
 C        -2.681533         3.008218        -0.750839
 C        -2.751786         2.336666         0.532542
 C        -1.230358         2.329889         1.119261
 H         1.203483         1.384875         0.516288
 H        -1.733166        -1.075506         0.662959
 H        -2.013554        -0.045264         2.040123
 H        -3.657819         0.284223        -0.185762
 H        -1.112731         0.339552        -1.760939
 H        -2.267613         3.965236        -0.750087
 H        -3.574621         3.035378        -1.356416
 H        -3.570596         2.698464         1.238955
 H        -0.621637         3.061073         0.681480
 H        -1.297417         2.438009         2.271054
