19
Iteration:  1721
 O         0.715860         0.704178         0.391645
 C        -0.714757         0.978776         0.538364
 C        -1.950777        -0.021842         1.019200
 C        -2.806271         0.857210         0.032132
 C        -1.568212         1.067662        -0.832216
 O        -1.581600         2.281276        -1.464038
 C        -2.588144         3.068003        -0.771195
 C        -2.762077         2.301731         0.519991
 C        -1.270648         2.212828         1.210883
 H         1.109108         0.992561         1.226713
 H        -1.585318        -0.991920         0.550027
 H        -2.208260        -0.072094         2.060880
 H        -3.652575         0.398461        -0.430110
 H        -1.250001         0.248896        -1.481625
 H        -2.281354         4.113385        -0.826095
 H        -3.608704         2.920136        -1.409340
 H        -3.679415         2.753945         1.018100
 H        -0.714786         3.008248         0.801455
 H        -1.158094         2.108318         2.312032
