19
Iteration:   300charge 0 multiplicity 1
 O         0.684212         0.862769         0.557475
 C        -0.793675         0.953604         0.448578
 C        -1.906260        -0.037400         0.957745
 C        -2.846826         0.823881         0.070055
 C        -1.634177         1.023455        -0.935313
 O        -1.657377         2.177605        -1.640810
 C        -2.386591         3.100209        -0.764621
 C        -2.636406         2.329894         0.646368
 C        -1.312571         2.182187         1.237254
 H         0.877035         1.250254         1.417172
 H        -1.734567        -1.085064         0.697838
 H        -2.091550        -0.067188         2.005562
 H        -3.786445         0.340878        -0.279252
 H        -1.470101         0.091060        -1.508772
 H        -1.894336         4.131898        -0.865825
 H        -3.389410         3.328116        -1.299041
 H        -3.614550         2.584018         1.193877
 H        -0.787601         3.188078         1.005670
 H        -1.153098         1.901142         2.308853
