19
Iteration:  2464charge 0 multiplicity 1
 O         0.662331         0.712432         0.569379
 C        -0.741935         0.958550         0.566974
 C        -1.808187        -0.023062         0.954227
 C        -2.791952         0.810591         0.070383
 C        -1.548770         1.044120        -0.990122
 O        -1.679578         2.198979        -1.588159
 C        -2.565369         3.097794        -0.747423
 C        -2.720614         2.356715         0.530105
 C        -1.283878         2.259767         1.264558
 H         1.064050         1.522229         0.188645
 H        -1.700969        -1.108132         0.595814
 H        -1.958506        -0.125811         2.077802
 H        -3.895319         0.467290        -0.005269
 H        -1.389567         0.239977        -1.651362
 H        -2.027372         4.111731        -0.536612
 H        -3.633755         3.033542        -1.183441
 H        -3.638136         2.662551         0.969265
 H        -0.620838         3.173500         0.997969
 H        -1.209409         2.200453         2.333977
