19
Iteration:  4104charge 0 multiplicity 1
 O         0.586022         0.678435         0.566476
 C        -0.743789         1.018599         0.526188
 C        -1.845827        -0.045209         0.996501
 C        -2.849089         0.833750         0.068189
 C        -1.583861         0.993386        -0.882919
 O        -1.569256         2.279521        -1.608095
 C        -2.590749         3.081760        -0.813329
 C        -2.714443         2.365053         0.615347
 C        -1.231041         2.211746         1.192647
 H         1.114074         1.447911         0.421989
 H        -1.679247        -0.930625         0.420390
 H        -1.701449        -0.241462         2.080093
 H        -3.694485         0.351691        -0.391485
 H        -1.345850         0.201496        -1.595974
 H        -2.193013         4.061490        -0.537048
 H        -3.464882         3.239068        -1.233527
 H        -3.482600         2.567407         1.284251
 H        -0.594429         3.136168         0.856133
 H        -1.338961         2.146230         2.201959
