19
Iteration:  1019charge 0 multiplicity 1
 O         0.628326         0.582247         0.665353
 C        -0.762188         0.955112         0.458099
 C        -1.838494         0.012775         0.969065
 C        -2.719569         0.850259        -0.010317
 C        -1.460127         1.042286        -0.851708
 O        -1.630100         2.350420        -1.498292
 C        -2.659824         3.062464        -0.754024
 C        -2.733201         2.317672         0.559478
 C        -1.279242         2.323953         1.129829
 H         0.939572         0.350333        -0.259542
 H        -1.683047        -1.058069         0.676836
 H        -2.212029         0.072925         1.974962
 H        -3.604551         0.587440        -0.622887
 H        -1.174165         0.243246        -1.598344
 H        -2.342698         4.139597        -0.770283
 H        -3.643971         2.840139        -1.262985
 H        -3.466160         2.522754         1.308989
 H        -0.818171         3.254641         0.988682
 H        -1.346269         2.171409         2.168355
