19
Iteration:  1583charge 0 multiplicity 1
 O         0.617922         0.690361         0.433149
 C        -0.791897         0.982128         0.506434
 C        -1.911192        -0.031469         1.020906
 C        -2.741982         0.836584         0.059213
 C        -1.517650         1.030011        -0.815032
 O        -1.550743         2.325130        -1.436415
 C        -2.585063         3.055676        -0.828217
 C        -2.726377         2.247529         0.524565
 C        -1.249473         2.289739         1.123144
 H         0.896998         0.736187         1.394684
 H        -1.922670        -0.913776         0.477266
 H        -2.210565         0.030500         2.067439
 H        -3.712928         0.350788        -0.395101
 H        -1.221670         0.353378        -1.628095
 H        -2.399730         4.180148        -0.706191
 H        -3.607918         2.981524        -1.374364
 H        -3.531302         2.549281         1.217694
 H        -0.584117         3.242968         0.974843
 H        -1.306194         2.137643         2.199756
