19
Iteration:   418charge 0 multiplicity 1
 O         0.568128         0.789809         0.659923
 C        -0.772692         0.982224         0.529839
 C        -1.855082        -0.102501         0.856645
 C        -2.796014         0.819603         0.017689
 C        -1.562034         0.987947        -0.833277
 O        -1.677732         2.183772        -1.633620
 C        -2.482363         3.118268        -0.779484
 C        -2.687045         2.335472         0.626068
 C        -1.247567         2.298259         1.230331
 H         1.039432         1.172212        -0.105319
 H        -1.589306        -1.070195         0.467060
 H        -2.136368        -0.343854         1.972205
 H        -3.825867         0.480495        -0.313906
 H        -1.173175         0.105137        -1.484552
 H        -1.843785         3.942938        -0.769180
 H        -3.416129         3.432880        -1.158394
 H        -3.438002         2.915397         1.258217
 H        -0.613291         3.061316         0.866080
 H        -1.237364         2.271119         2.349588
