19
Iteration:  2005charge 0 multiplicity 1
 O         0.613577         0.687771         0.493218
 C        -0.777969         1.040746         0.495030
 C        -1.842820        -0.034225         0.973206
 C        -2.800131         0.779158         0.080015
 C        -1.551004         1.037927        -0.903170
 O        -1.623410         2.266455        -1.540288
 C        -2.509875         3.042940        -0.698900
 C        -2.744109         2.326711         0.513597
 C        -1.255880         2.265200         1.212331
 H         0.992616         1.593964         0.573868
 H        -1.610345        -1.076429         0.574999
 H        -2.063668        -0.119084         2.019571
 H        -3.771841         0.353040        -0.173301
 H        -1.146861         0.233528        -1.527504
 H        -2.215164         4.076856        -0.714815
 H        -3.583545         3.079298        -1.218862
 H        -3.532710         2.690863         1.248388
 H        -0.723064         3.216091         0.956578
 H        -1.221704         1.997942         2.217988
