19
Iteration:  1298
 O         0.580553         0.596577         0.692790
 C        -0.770713         1.018716         0.486605
 C        -1.828127         0.010505         0.940146
 C        -2.763057         0.859932         0.012475
 C        -1.503838         1.060708        -0.900171
 O        -1.574821         2.395894        -1.448134
 C        -2.686719         3.035198        -0.823319
 C        -2.719047         2.264271         0.588647
 C        -1.202726         2.312286         1.051222
 H         0.737006        -0.164342         0.111125
 H        -1.575820        -1.014170         0.555258
 H        -2.132762        -0.003052         2.100475
 H        -3.658748         0.328479        -0.250526
 H        -1.163811         0.297225        -1.526320
 H        -2.635868         4.118008        -0.780394
 H        -3.572529         2.721869        -1.316965
 H        -3.548628         2.579563         1.250238
 H        -0.521174         3.178458         0.757829
 H        -1.141116         2.167702         2.197016
