19
Iteration:   378
 O         0.545969         0.490155         0.679906
 C        -0.747398         0.981136         0.493440
 C        -1.781903         0.016049         1.027854
 C        -2.719820         0.809175         0.040714
 C        -1.461063         1.041866        -0.898575
 O        -1.634541         2.421395        -1.499847
 C        -2.739911         3.051353        -0.855289
 C        -2.690219         2.380601         0.560720
 C        -1.248566         2.249611         1.066696
 H         1.210184         1.120868         0.315341
 H        -1.676912        -1.108054         1.010732
 H        -2.084542         0.236744         1.986205
 H        -3.583708         0.397723        -0.374189
 H        -1.065967         0.373973        -1.583529
 H        -2.531523         4.211312        -0.761465
 H        -3.643409         2.743115        -1.512319
 H        -3.411274         2.573079         1.416568
 H        -0.827561         3.190471         0.545700
 H        -1.118800         2.134232         2.127299
