19
Iteration:  4948charge 0 multiplicity 1
 O         0.554182         0.556973         0.718399
 C        -0.768556         0.943423         0.482039
 C        -1.850547        -0.005812         0.907348
 C        -2.750393         0.797250         0.132453
 C        -1.498389         1.132205        -0.940638
 O        -1.692677         2.303549        -1.600766
 C        -2.620739         3.166857        -0.762556
 C        -2.708359         2.266345         0.556120
 C        -1.155478         2.304405         1.104523
 H         1.157340         1.311728         0.514475
 H        -1.521779        -0.981926         0.353755
 H        -2.057140        -0.091244         2.011917
 H        -3.748984         0.492256        -0.150068
 H        -1.203276         0.221932        -1.482764
 H        -2.127505         4.083503        -0.489557
 H        -3.636995         3.097006        -1.263342
 H        -3.615161         2.497685         1.200273
 H        -0.567356         3.098237         0.697393
 H        -1.054215         2.061973         2.248083
