19
Iteration:  1324charge 0 multiplicity 1
 O         0.640032         0.610846         0.609623
 C        -0.756716         1.011634         0.509939
 C        -1.867117        -0.027637         1.000998
 C        -2.726998         0.852334         0.007372
 C        -1.514019         1.089860        -0.955205
 O        -1.614997         2.358330        -1.493458
 C        -2.644820         3.046596        -0.779007
 C        -2.700268         2.255830         0.560501
 C        -1.265893         2.340003         1.129256
 H         0.581025        -0.344154         0.691443
 H        -1.694827        -1.015761         0.608669
 H        -2.155081         0.014005         2.073209
 H        -3.673675         0.366565        -0.383254
 H        -1.107400         0.293323        -1.663377
 H        -2.405372         4.071248        -0.486609
 H        -3.586987         2.896096        -1.356731
 H        -3.499305         2.615918         1.175644
 H        -0.578919         3.145761         0.755708
 H        -1.380191         2.453025         2.313532
