19
Iteration:  1729charge 0 multiplicity 1
 O         0.645779         0.715613         0.458746
 C        -0.767251         0.907618         0.523050
 C        -1.847683        -0.027888         0.985877
 C        -2.759643         0.831035         0.030772
 C        -1.554708         1.016655        -0.874189
 O        -1.609909         2.327619        -1.475882
 C        -2.624641         3.072793        -0.812034
 C        -2.670679         2.334255         0.548246
 C        -1.311614         2.243342         1.203099
 H         1.197220         0.885027         1.207133
 H        -1.748294        -1.085161         0.690994
 H        -2.197547        -0.042045         2.038680
 H        -3.642603         0.430928        -0.362729
 H        -1.451663         0.174565        -1.590417
 H        -2.334627         4.092936        -0.744585
 H        -3.594915         3.047607        -1.353807
 H        -3.481683         2.678941         1.156465
 H        -0.526716         3.147854         0.910305
 H        -1.172324         2.263578         2.331510
