19
Iteration:  4501
 O         0.562459         0.598247         0.639049
 C        -0.757965         0.934373         0.496459
 C        -1.851209        -0.021567         0.941216
 C        -2.722704         0.812261         0.062207
 C        -1.479815         1.022197        -0.876343
 O        -1.686646         2.345104        -1.527791
 C        -2.595841         3.078418        -0.739799
 C        -2.685667         2.315494         0.558917
 C        -1.255980         2.291788         1.065859
 H         1.032539         1.411930         0.748185
 H        -1.677208        -1.061083         0.546672
 H        -2.053100        -0.176067         2.013649
 H        -3.664462         0.505808        -0.255651
 H        -1.280855         0.376502        -1.674443
 H        -2.314626         4.210301        -0.621346
 H        -3.461659         3.047660        -1.374100
 H        -3.496560         2.727852         1.267461
 H        -0.531139         3.163402         0.622565
 H        -1.194200         2.316161         2.120119
