19
Iteration:  2208
 O         0.650253         0.535446         0.634618
 C        -0.718562         1.040085         0.505558
 C        -1.814122        -0.072557         0.988288
 C        -2.750197         0.819612         0.042431
 C        -1.525481         1.086520        -0.893016
 O        -1.724604         2.258096        -1.541745
 C        -2.700299         3.060358        -0.751524
 C        -2.643106         2.361035         0.528348
 C        -1.276582         2.339997         1.118867
 H         1.282098         1.284565         0.540674
 H        -1.454545        -1.040600         0.515430
 H        -1.961481        -0.178031         2.029824
 H        -3.687251         0.587266        -0.437851
 H        -1.123505         0.263722        -1.546162
 H        -2.386185         4.112602        -0.759283
 H        -3.791324         3.236931        -1.176287
 H        -3.413479         2.687731         1.103956
 H        -0.720613         3.181460         0.775222
 H        -1.232659         2.356725         2.276730
