19
Iteration:   319charge 0 multiplicity 1
 O         0.593927         0.731202         0.601281
 C        -0.760391         0.940809         0.504483
 C        -1.813496        -0.075619         0.998866
 C        -2.770755         0.840688         0.117951
 C        -1.591084         0.974219        -0.897540
 O        -1.654654         2.304661        -1.590426
 C        -2.582411         3.100816        -0.805818
 C        -2.669018         2.332953         0.464698
 C        -1.207427         2.222659         1.152989
 H         0.882745         1.191617         1.383877
 H        -1.846061        -1.005449         0.540287
 H        -1.942365        -0.018087         2.139369
 H        -3.790003         0.444635        -0.272168
 H        -1.402004         0.225216        -1.772407
 H        -2.189247         4.044262        -0.528491
 H        -3.518028         3.373255        -1.386043
 H        -3.358504         2.785630         1.195155
 H        -0.588047         3.040915         1.106944
 H        -1.356061         2.121160         2.257256
