19
Iteration:  3870
 O         0.587267         0.547998         0.644199
 C        -0.744023         0.982502         0.595501
 C        -1.831301        -0.048815         0.951223
 C        -2.719811         0.834377         0.038385
 C        -1.558783         1.083344        -0.897695
 O        -1.559153         2.358662        -1.615583
 C        -2.770725         3.088608        -0.762119
 C        -2.614073         2.260905         0.564693
 C        -1.255761         2.288133         1.138707
 H         0.998489         1.430638         0.375466
 H        -1.582721        -1.051521         0.493931
 H        -1.988307        -0.000340         2.031830
 H        -3.739613         0.564915        -0.228317
 H        -1.507117         0.229027        -1.619557
 H        -2.490703         4.184802        -0.842047
 H        -3.857327         2.998327        -1.111440
 H        -3.320413         2.683073         1.355721
 H        -0.617001         3.111790         0.626193
 H        -1.222722         2.285796         2.191074
