19
Iteration:   826charge 0 multiplicity 1
 O         0.531700         0.578841         0.784773
 C        -0.716525         0.971003         0.544999
 C        -1.849896        -0.043373         0.960871
 C        -2.630739         0.734450         0.002595
 C        -1.550354         1.106731        -0.902741
 O        -1.710138         2.330410        -1.542950
 C        -2.689733         3.129847        -0.735152
 C        -2.700571         2.311456         0.487065
 C        -1.161310         2.389433         1.049171
 H         0.905446         0.295846        -0.102988
 H        -1.536835        -1.080263         0.430167
 H        -2.116916        -0.062615         2.069976
 H        -3.501438         0.461992        -0.545554
 H        -1.165370         0.440642        -1.707814
 H        -2.472010         4.184550        -0.715016
 H        -3.735347         3.024402        -1.128685
 H        -3.432638         2.464980         1.378927
 H        -0.319481         3.113762         0.700767
 H        -1.001958         2.235453         2.152756
