19
Iteration:  2787charge 0 multiplicity 1
 O         0.614764         0.672963         0.577971
 C        -0.759954         0.999460         0.504249
 C        -1.796377         0.005908         0.978234
 C        -2.766990         0.810208         0.006931
 C        -1.578628         1.000057        -0.881875
 O        -1.583637         2.307912        -1.527664
 C        -2.593888         3.045198        -0.731141
 C        -2.695108         2.314214         0.571827
 C        -1.314718         2.291616         1.174187
 H         0.951406         0.729446        -0.318266
 H        -1.364176        -0.977055         0.700270
 H        -2.118816         0.024575         1.995639
 H        -3.763951         0.441242        -0.400037
 H        -1.403367         0.016896        -1.530023
 H        -2.205259         4.027500        -0.663914
 H        -3.572126         3.060526        -1.186955
 H        -3.555900         2.846216         1.156556
 H        -0.830187         3.226024         0.947549
 H        -1.379598         2.129928         2.302611
