19
Iteration:   191
 O         0.614153         0.536792         0.689083
 C        -0.732286         0.970835         0.533061
 C        -1.832319        -0.035259         0.890207
 C        -2.713530         0.832778         0.011234
 C        -1.486988         1.082787        -0.937388
 O        -1.727381         2.349144        -1.531064
 C        -2.740764         3.072666        -0.758856
 C        -2.633312         2.313749         0.582453
 C        -1.166790         2.404853         1.103137
 H         0.779635         0.447737         1.670832
 H        -1.847506        -1.043196         0.350377
 H        -2.139597        -0.249018         1.920969
 H        -3.573994         0.315848        -0.497111
 H        -1.293167         0.257024        -1.658572
 H        -2.348977         4.133524        -0.814641
 H        -3.634009         2.901498        -1.273513
 H        -3.448916         2.460787         1.383360
 H        -0.666724         3.098179         0.405254
 H        -1.156655         2.615678         2.172830
