19
Iteration:  3334charge 0 multiplicity 1
 O         0.640006         0.680149         0.538651
 C        -0.760430         1.049467         0.477219
 C        -1.805018         0.016799         0.904478
 C        -2.807311         0.842471         0.052848
 C        -1.587671         1.037960        -0.843648
 O        -1.636059         2.245584        -1.523858
 C        -2.605622         3.049033        -0.731349
 C        -2.671917         2.280398         0.580755
 C        -1.294786         2.212112         1.206366
 H         1.134978         1.363066         0.088032
 H        -1.508313        -0.862250         0.343472
 H        -1.961068        -0.267114         1.967719
 H        -3.814084         0.627675        -0.276947
 H        -1.144141         0.237619        -1.506694
 H        -2.167535         4.049777        -0.612938
 H        -3.587461         2.980023        -1.217138
 H        -3.512434         2.764223         1.194819
 H        -0.804133         3.128607         0.924914
 H        -1.123483         2.121813         2.372847
