19
Iteration:  2311
 O         0.595733         0.708814         0.662519
 C        -0.733236         1.041370         0.444845
 C        -1.743786        -0.018703         0.967198
 C        -2.777267         0.835537         0.016059
 C        -1.526345         1.034137        -0.917546
 O        -1.805446         2.184275        -1.626836
 C        -2.534848         3.151351        -0.801611
 C        -2.698887         2.336706         0.607637
 C        -1.275690         2.177865         1.268350
 H         1.265913         1.267033         0.299475
 H        -1.698402        -0.979070         0.555610
 H        -1.928375        -0.080410         2.056762
 H        -3.716909         0.273366        -0.304853
 H        -1.224731         0.254670        -1.576076
 H        -1.896026         4.090321        -0.621048
 H        -3.481855         3.162181        -1.348794
 H        -3.403463         2.741689         1.387622
 H        -0.627864         3.082453         0.900754
 H        -1.276451         2.014999         2.332701
