19
Iteration:  1956charge 0 multiplicity 1
 O         0.597994         0.637311         0.627913
 C        -0.756535         0.943765         0.461256
 C        -1.845862        -0.075583         0.978699
 C        -2.768608         0.771152         0.130887
 C        -1.448506         1.025935        -0.937579
 O        -1.626842         2.396063        -1.502911
 C        -2.695415         3.059454        -0.823855
 C        -2.656022         2.313174         0.566468
 C        -1.292172         2.321691         1.158499
 H         0.982905         0.958106        -0.204501
 H        -1.685138        -1.094641         0.735963
 H        -1.775958         0.086213         2.086725
 H        -3.667039         0.524380        -0.444602
 H        -1.233816         0.366270        -1.796986
 H        -2.476998         4.175097        -0.665014
 H        -3.685713         3.021088        -1.218881
 H        -3.348482         2.665490         1.267746
 H        -0.623594         3.057602         0.874747
 H        -1.283077         2.208249         2.231593
