19
Iteration:  3072charge 0 multiplicity 1
 O         0.597785         0.660929         0.511629
 C        -0.774146         0.942977         0.533610
 C        -1.825775        -0.027901         0.952192
 C        -2.762433         0.732306         0.050515
 C        -1.568285         1.054326        -0.859532
 O        -1.627807         2.304044        -1.568667
 C        -2.675216         3.165552        -0.788431
 C        -2.737020         2.410979         0.519027
 C        -1.172886         2.188567         1.245300
 H         1.101835         1.471841         0.573785
 H        -1.343952        -0.988759         0.671672
 H        -1.989871        -0.139639         1.970165
 H        -3.624866         0.128824        -0.194680
 H        -1.211660         0.348815        -1.687288
 H        -2.320461         4.106324        -0.574158
 H        -3.681549         3.093087        -1.438922
 H        -3.402622         2.763778         1.465258
 H        -0.538096         3.016402         1.162179
 H        -1.139743         1.975312         2.398634
