19
Iteration:   533charge 0 multiplicity 1
 O         0.556531         0.454118         0.815084
 C        -0.721585         1.009280         0.457275
 C        -1.711236        -0.017552         0.954998
 C        -2.715846         0.762139         0.023858
 C        -1.536459         1.100867        -0.932129
 O        -1.695126         2.355951        -1.577530
 C        -2.764790         3.081400        -0.745775
 C        -2.693532         2.350168         0.510890
 C        -1.178579         2.339683         1.071474
 H         1.270112         1.019609         0.430417
 H        -1.622346        -1.080810         0.641843
 H        -1.971726        -0.015957         2.010164
 H        -3.743869         0.435814        -0.271642
 H        -1.091310         0.387434        -1.637647
 H        -2.524514         4.197662        -0.802850
 H        -3.770905         2.981590        -1.241646
 H        -3.384521         2.787003         1.328954
 H        -0.642717         3.300040         0.756371
 H        -1.254346         2.325647         2.175406
