19
Iteration:  1822charge 0 multiplicity 1
 O         0.621849         0.710426         0.438560
 C        -0.738362         1.014222         0.466929
 C        -1.865956         0.012782         0.985241
 C        -2.760642         0.816194         0.042864
 C        -1.533045         0.978881        -0.898709
 O        -1.564499         2.251477        -1.486474
 C        -2.629877         3.036372        -0.708288
 C        -2.664742         2.284719         0.570158
 C        -1.299899         2.369597         1.188224
 H         0.634168         0.303228         1.362647
 H        -1.573245        -0.920198         0.495507
 H        -2.135441        -0.194772         2.047909
 H        -3.856022         0.564019        -0.225902
 H        -1.534353         0.365810        -1.794700
 H        -2.244379         4.100611        -0.674092
 H        -3.582537         3.033337        -1.371615
 H        -3.559337         2.625775         1.192861
 H        -0.840135         3.242884         1.004440
 H        -1.123504         2.156352         2.239377
