19
Iteration:   402charge 0 multiplicity 1
 O         0.674373         0.672453         0.737880
 C        -0.767900         1.007520         0.508291
 C        -1.868545        -0.007003         0.925401
 C        -2.789315         0.830155         0.100780
 C        -1.616410         1.032540        -0.929861
 O        -1.654121         2.265248        -1.539367
 C        -2.548492         3.048548        -0.749186
 C        -2.665273         2.300933         0.477911
 C        -1.243537         2.304225         1.133700
 H         1.109028         1.051261        -0.071984
 H        -1.781407        -0.988429         0.349489
 H        -2.076288        -0.288635         1.943102
 H        -3.775473         0.538232        -0.217186
 H        -1.446616         0.295892        -1.688775
 H        -2.170338         4.115298        -0.513625
 H        -3.470583         3.002641        -1.402801
 H        -3.470639         2.486252         1.139081
 H        -0.735379         3.262097         0.747448
 H        -1.325413         2.137133         2.217595
