19
Iteration:  2468charge 0 multiplicity 1
 O         0.661164         0.694555         0.549380
 C        -0.740858         0.993782         0.586365
 C        -1.795976        -0.042446         0.963852
 C        -2.818770         0.807812         0.051525
 C        -1.593973         1.066028        -0.975782
 O        -1.647235         2.227026        -1.599858
 C        -2.559717         3.050575        -0.757778
 C        -2.732110         2.367810         0.553905
 C        -1.267685         2.255787         1.271907
 H         1.071420         1.537142         0.235091
 H        -1.655919        -0.999640         0.655355
 H        -2.015491        -0.013376         2.019206
 H        -3.747714         0.307622        -0.164462
 H        -1.390765         0.154193        -1.607398
 H        -2.054167         3.979887        -0.626900
 H        -3.617798         3.051067        -1.208784
 H        -3.678544         2.677215         1.127752
 H        -0.633262         3.107727         0.956827
 H        -1.205917         2.275147         2.363553
