19
Iteration:  4445charge 0 multiplicity 1
 O         0.611922         0.590325         0.620373
 C        -0.728933         1.014072         0.509558
 C        -1.883596        -0.054255         1.001025
 C        -2.767459         0.773617         0.034973
 C        -1.525055         1.069590        -0.902136
 O        -1.588023         2.293366        -1.587650
 C        -2.723838         3.138069        -0.773504
 C        -2.664554         2.269670         0.550945
 C        -1.236186         2.294120         1.211219
 H         1.143964         1.130390        -0.020349
 H        -1.636956        -1.071626         0.641220
 H        -2.057396         0.032349         2.100890
 H        -3.749540         0.628637        -0.342707
 H        -1.284025         0.333658        -1.710745
 H        -2.328887         4.212162        -0.469858
 H        -3.458817         3.160934        -1.543981
 H        -3.454407         2.715749         1.209975
 H        -0.626035         3.274512         0.990658
 H        -1.389656         2.195733         2.312212
