19
Iteration:  1652
 O         0.691573         0.678972         0.602180
 C        -0.666175         0.937941         0.503750
 C        -1.865883        -0.062588         0.949042
 C        -2.743760         0.887793         0.012454
 C        -1.571054         1.039089        -0.943492
 O        -1.712068         2.288690        -1.585879
 C        -2.563375         3.043430        -0.703460
 C        -2.693157         2.351771         0.561398
 C        -1.298633         2.306710         1.176108
 H         0.843640         0.669973         1.592790
 H        -1.835112        -0.878872         0.306541
 H        -2.236473        -0.217809         1.993827
 H        -3.671311         0.572083        -0.299387
 H        -1.440867         0.100301        -1.484382
 H        -2.251542         4.069250        -0.739253
 H        -3.581432         3.018127        -1.348149
 H        -3.519730         2.443118         1.170171
 H        -0.677499         3.153346         0.879603
 H        -1.287043         2.358839         2.265191
