19
Iteration:  3639
 O         0.544898         0.684867         0.554618
 C        -0.839100         1.021307         0.476177
 C        -1.808237        -0.071250         0.991802
 C        -2.822221         0.679930         0.047231
 C        -1.539685         1.039328        -0.835277
 O        -1.619821         2.315500        -1.585975
 C        -2.556585         3.092229        -0.740332
 C        -2.655854         2.332338         0.494910
 C        -1.228284         2.253047         1.195659
 H         0.963214         1.536146         0.219112
 H        -1.439069        -1.030919         0.652502
 H        -2.111257         0.315746         2.056976
 H        -3.712260         0.220813        -0.210989
 H        -1.168976         0.111943        -1.430149
 H        -1.934990         4.103388        -0.577400
 H        -3.603389         3.207944        -1.086113
 H        -3.349321         2.908114         1.215514
 H        -0.634382         3.296597         1.111180
 H        -1.231838         1.972857         2.256608
