19
Iteration:  3483charge 0 multiplicity 1
 O         0.633076         0.700285         0.557322
 C        -0.749545         0.908792         0.489269
 C        -1.810492        -0.101354         1.016431
 C        -2.763554         0.755962         0.038807
 C        -1.549865         1.035168        -0.835615
 O        -1.668346         2.303683        -1.567769
 C        -2.586913         3.152153        -0.765139
 C        -2.675354         2.359897         0.566517
 C        -1.315404         2.249675         1.176345
 H         1.039251         1.353810        -0.066003
 H        -1.626881        -1.206825         0.675327
 H        -2.036397        -0.049181         2.123394
 H        -3.780613         0.520957        -0.370879
 H        -1.324457         0.321293        -1.571136
 H        -2.130105         4.141337        -0.607982
 H        -3.471405         3.305904        -1.314012
 H        -3.472785         2.674346         1.199094
 H        -0.701214         3.232311         0.892016
 H        -1.333279         2.132271         2.242919
