19
Iteration:  2502charge 0 multiplicity 1
 O         0.590872         0.603590         0.561101
 C        -0.786162         0.981999         0.512561
 C        -1.805951        -0.002390         0.995651
 C        -2.747411         0.818895         0.082463
 C        -1.500877         1.043506        -0.946429
 O        -1.604521         2.302669        -1.472524
 C        -2.678495         3.007757        -0.738400
 C        -2.743766         2.338104         0.516798
 C        -1.232057         2.326883         1.120101
 H         1.197484         1.405686         0.513600
 H        -1.733212        -1.026773         0.661514
 H        -1.995884        -0.037548         2.035084
 H        -3.642176         0.293623        -0.151171
 H        -1.109786         0.321675        -1.758300
 H        -2.277307         3.964489        -0.767887
 H        -3.602235         3.066126        -1.364079
 H        -3.587952         2.657341         1.227905
 H        -0.621367         3.088007         0.701161
 H        -1.289173         2.403994         2.247420
