19
Iteration:  1244
 O         0.573096         0.837112         0.617886
 C        -0.817338         0.964033         0.491632
 C        -1.847123        -0.031220         0.873796
 C        -2.807293         0.843758         0.026989
 C        -1.528419         1.010386        -0.889891
 O        -1.687612         2.240592        -1.610001
 C        -2.414766         3.086704        -0.731820
 C        -2.630815         2.245111         0.551519
 C        -1.312707         2.288010         1.259989
 H         0.984618         0.062090         0.268411
 H        -1.713942        -1.063597         0.582963
 H        -1.981307        -0.118047         2.035501
 H        -3.733646         0.327703        -0.172563
 H        -1.376342         0.158407        -1.469636
 H        -1.859071         3.989090        -0.496835
 H        -3.370073         3.479271        -1.053183
 H        -3.554479         2.684484         0.927217
 H        -0.681307         3.271247         1.128036
 H        -1.398637         1.911180         2.405891
