19
Iteration:  4748
 O         0.611052         0.583091         0.556389
 C        -0.739461         1.004182         0.524432
 C        -1.859431        -0.008863         0.965067
 C        -2.762424         0.849897        -0.000099
 C        -1.592835         0.984258        -0.860490
 O        -1.546651         2.301598        -1.483898
 C        -2.646193         3.081976        -0.738150
 C        -2.711807         2.335215         0.548302
 C        -1.222604         2.298986         1.136134
 H         1.112278         1.271144         0.126865
 H        -1.757421        -0.977049         0.544205
 H        -2.294834         0.081771         1.968085
 H        -3.672980         0.569588        -0.549940
 H        -1.367847         0.219927        -1.592225
 H        -2.423508         4.099660        -0.690383
 H        -3.597693         2.986274        -1.128542
 H        -3.410249         2.707740         1.218058
 H        -0.601211         3.140351         1.094402
 H        -1.410000         2.011437         2.223368
