19
Iteration:  2858charge 0 multiplicity 1
 O         0.656257         0.709040         0.627885
 C        -0.705023         1.035340         0.463444
 C        -1.824029         0.034577         0.942551
 C        -2.807791         0.849903         0.097675
 C        -1.524429         1.092036        -0.866828
 O        -1.690558         2.316938        -1.595464
 C        -2.580437         2.960586        -0.711686
 C        -2.678859         2.264521         0.550948
 C        -1.305812         2.246701         1.117561
 H         0.738356        -0.227641         0.553486
 H        -1.742538        -0.880558         0.348915
 H        -2.099861        -0.075013         2.088442
 H        -3.671537         0.338982        -0.302441
 H        -1.221282         0.372839        -1.561041
 H        -2.366187         4.087532        -0.429800
 H        -3.545496         3.220838        -1.242555
 H        -3.359713         2.656467         1.227365
 H        -0.608137         3.104153         0.784942
 H        -1.271738         2.009163         2.162574
