19
Iteration:  3584charge 0 multiplicity 1
 O         0.526500         0.592188         0.665260
 C        -0.791528         1.028842         0.495031
 C        -1.819772        -0.020494         0.951730
 C        -2.721288         0.827618         0.095029
 C        -1.530696         1.071386        -0.917651
 O        -1.671000         2.389132        -1.507330
 C        -2.701319         3.035902        -0.825987
 C        -2.646042         2.230297         0.511740
 C        -1.132009         2.259208         1.155974
 H         1.081824         1.224219         0.211561
 H        -1.491422        -0.974691         0.499889
 H        -1.951816        -0.291973         2.074048
 H        -3.681544         0.532335        -0.222588
 H        -1.329463         0.337402        -1.743840
 H        -2.397992         4.142620        -0.851365
 H        -3.652840         2.939538        -1.240869
 H        -3.266623         2.530011         1.391035
 H        -0.607583         3.258956         0.792164
 H        -1.099125         2.223798         2.250445
