19
Iteration:  1601
 O         0.685667         0.580699         0.539482
 C        -0.701461         0.979618         0.521309
 C        -1.843574         0.031512         0.935683
 C        -2.821534         0.773271         0.021462
 C        -1.554712         1.051713        -0.917406
 O        -1.578520         2.344923        -1.484943
 C        -2.678076         3.051538        -0.766395
 C        -2.756385         2.333407         0.535462
 C        -1.279399         2.307477         1.156278
 H         1.010954         0.538764         1.487404
 H        -1.443768        -1.063188         0.720391
 H        -2.045156         0.143045         2.013988
 H        -3.815006         0.497249        -0.409742
 H        -1.320836         0.180076        -1.526350
 H        -2.238616         4.036727        -0.663227
 H        -3.498224         3.038873        -1.384815
 H        -3.565277         2.679799         1.273704
 H        -0.862365         3.247315         0.760230
 H        -1.127491         2.366383         2.285473
