19
Iteration:  3048
 O         0.613198         0.701539         0.487873
 C        -0.756383         0.995749         0.454093
 C        -1.858028        -0.049181         0.958406
 C        -2.757556         0.866080         0.073322
 C        -1.572524         0.991235        -0.854193
 O        -1.612620         2.332536        -1.506923
 C        -2.517029         3.026220        -0.755481
 C        -2.711851         2.270776         0.592880
 C        -1.331564         2.263291         1.242801
 H         1.209899         1.388106         0.040815
 H        -1.707187        -1.101151         0.497016
 H        -1.922267        -0.154537         2.023785
 H        -3.741111         0.574131        -0.334345
 H        -1.339977         0.270279        -1.562307
 H        -2.126108         4.041065        -0.557250
 H        -3.570946         3.112728        -1.270893
 H        -3.681421         2.369766         1.135567
 H        -0.845542         3.180028         0.734151
 H        -1.041056         2.221712         2.332309
