19
Iteration:  2439
 O         0.599220         0.734661         0.662327
 C        -0.737629         1.044676         0.495631
 C        -1.780920        -0.064039         0.935392
 C        -2.783283         0.783814         0.049063
 C        -1.607011         1.079344        -0.857097
 O        -1.737503         2.238696        -1.625596
 C        -2.546088         3.073353        -0.777690
 C        -2.707738         2.341681         0.595660
 C        -1.216273         2.219290         1.143849
 H         1.237104         1.289167         0.115967
 H        -1.597401        -1.240858         0.632189
 H        -1.987513        -0.094457         2.026949
 H        -3.587953         0.285946        -0.551398
 H        -1.506837         0.134301        -1.458594
 H        -1.906531         3.937115        -0.533640
 H        -3.493744         3.294710        -1.154947
 H        -3.440646         2.726013         1.309252
 H        -0.619784         3.084368         0.967670
 H        -1.159574         2.091788         2.313561
