19
Iteration:  4433charge 0 multiplicity 1
 O         0.603709         0.619183         0.599473
 C        -0.789535         0.974748         0.575802
 C        -1.810587        -0.013602         0.965728
 C        -2.771727         0.778282         0.012384
 C        -1.592624         1.076372        -0.855155
 O        -1.633816         2.352571        -1.595478
 C        -2.523022         3.081179        -0.809333
 C        -2.716405         2.278921         0.549891
 C        -1.261273         2.303054         1.195903
 H         1.069938         1.188873        -0.052468
 H        -1.518995        -1.079021         0.728981
 H        -2.289047        -0.071439         1.980843
 H        -3.680932         0.262912        -0.342617
 H        -1.322230         0.141275        -1.499989
 H        -2.205361         4.211389        -0.631724
 H        -3.590192         3.125708        -1.164946
 H        -3.512366         2.392413         1.302439
 H        -0.528181         3.155659         0.904984
 H        -1.175084         2.195809         2.360410
