19
Iteration:   359charge 0 multiplicity 1
 O         0.530319         0.445369         0.586554
 C        -0.729469         1.001966         0.587811
 C        -1.891919         0.059469         1.021332
 C        -2.724011         0.814380        -0.021562
 C        -1.486776         1.109218        -0.903766
 O        -1.580374         2.383447        -1.494924
 C        -2.791856         2.955409        -0.786827
 C        -2.673401         2.222623         0.513036
 C        -1.142624         2.473235         1.120642
 H         1.312664         1.047227         0.719340
 H        -1.610012        -0.982644         0.571991
 H        -2.156658         0.073992         2.114854
 H        -3.666357         0.407598        -0.389368
 H        -1.174274         0.279808        -1.547983
 H        -2.509566         4.051099        -0.647688
 H        -3.687886         2.655905        -1.298461
 H        -3.493672         2.483485         1.114350
 H        -0.551432         3.354366         0.580957
 H        -1.197907         2.546726         2.222716
