19
Iteration:  1272charge 0 multiplicity 1
 O         0.658052         0.744584         0.688932
 C        -0.769643         0.888654         0.531301
 C        -1.921567        -0.122590         0.942190
 C        -2.757058         0.873338         0.010832
 C        -1.523921         1.012030        -0.862028
 O        -1.625248         2.358406        -1.582438
 C        -2.616733         3.135163        -0.808977
 C        -2.667756         2.289299         0.582196
 C        -1.230256         2.315239         1.152329
 H         1.076287         0.168803         0.021819
 H        -1.833772        -1.209215         0.620442
 H        -2.193287        -0.112848         1.951501
 H        -3.687161         0.384005        -0.265964
 H        -1.363173         0.093865        -1.543592
 H        -2.399175         4.243990        -0.730382
 H        -3.694326         3.043214        -1.191577
 H        -3.593881         2.593954         1.139518
 H        -0.596958         3.076924         0.841556
 H        -1.206325         2.204242         2.156782
