19
Iteration:  1502charge 0 multiplicity 1
 O         0.578665         0.627787         0.625259
 C        -0.773646         1.081647         0.534813
 C        -1.881397        -0.012475         0.962580
 C        -2.750714         0.790223         0.042532
 C        -1.505981         1.022844        -0.953721
 O        -1.727803         2.309496        -1.623777
 C        -2.586447         3.094427        -0.800016
 C        -2.636340         2.240764         0.519950
 C        -1.197869         2.261299         1.233226
 H         0.877853         1.355164         1.251598
 H        -1.546194        -1.053351         0.659391
 H        -2.250909        -0.108582         1.938154
 H        -3.732977         0.593780        -0.296672
 H        -1.222453         0.186192        -1.611148
 H        -2.035434         4.020215        -0.485974
 H        -3.508018         3.261036        -1.287604
 H        -3.362104         2.613986         1.290816
 H        -0.584737         3.129005         0.925087
 H        -1.080261         2.075996         2.384403
