19
Iteration:  2953
 O         0.610767         0.602200         0.619247
 C        -0.819734         0.951711         0.475665
 C        -1.788907        -0.074375         0.958136
 C        -2.751205         0.785223         0.048446
 C        -1.540837         1.070510        -0.874174
 O        -1.604982         2.387523        -1.645476
 C        -2.701069         3.136200        -0.700263
 C        -2.725687         2.271164         0.623569
 C        -1.212090         2.248300         1.149202
 H         1.070578         1.419544         0.254700
 H        -1.560713        -1.056791         0.574739
 H        -1.915074        -0.055068         2.013749
 H        -3.733482         0.440995        -0.235346
 H        -1.121504         0.205720        -1.563828
 H        -2.348306         4.136063        -0.512527
 H        -3.513727         3.167406        -1.379946
 H        -3.435238         2.675677         1.432227
 H        -0.687591         3.068507         0.681663
 H        -1.191112         2.311422         2.259723
