19
Iteration:  4941charge 0 multiplicity 1
 O         0.571670         0.533001         0.708945
 C        -0.785271         1.037515         0.510064
 C        -1.842089        -0.027201         0.914427
 C        -2.768217         0.798499         0.056367
 C        -1.521090         1.088895        -0.891867
 O        -1.685647         2.295695        -1.603385
 C        -2.628531         3.168270        -0.723712
 C        -2.658515         2.262286         0.552548
 C        -1.199735         2.276487         1.075117
 H         1.212288         1.224874         0.536599
 H        -1.582174        -0.928925         0.534425
 H        -1.818859        -0.150677         1.960811
 H        -3.820579         0.517046        -0.096649
 H        -1.205646         0.318129        -1.581567
 H        -2.165452         4.193698        -0.612396
 H        -3.555521         3.139572        -1.248842
 H        -3.485267         2.561697         1.197704
 H        -0.663481         3.252389         0.894976
 H        -1.071995         2.167601         2.084056
