19
Iteration:    74
 O         0.623566         0.573835         0.525695
 C        -0.709467         0.997982         0.516089
 C        -1.884050         0.026967         0.923589
 C        -2.739200         0.873508         0.037778
 C        -1.496565         1.064341        -0.887730
 O        -1.644336         2.298610        -1.488344
 C        -2.612536         3.054959        -0.779975
 C        -2.768344         2.278177         0.501107
 C        -1.254564         2.331690         1.216882
 H         1.026299         0.623451         1.407149
 H        -1.682678        -1.061191         0.520928
 H        -2.268613        -0.122457         1.915153
 H        -3.661808         0.430059        -0.233907
 H        -1.122857         0.384648        -1.604393
 H        -2.228795         4.080950        -0.695182
 H        -3.650843         3.208639        -1.313232
 H        -3.517590         2.510482         1.232019
 H        -0.548215         3.143957         0.814524
 H        -1.250898         2.129871         2.294112
