19
Iteration:  1364charge 0 multiplicity 1
 O         0.662264         0.847985         0.640297
 C        -0.790126         0.985567         0.511281
 C        -1.858982        -0.071500         0.865277
 C        -2.770403         0.856176         0.037305
 C        -1.611624         1.007984        -0.937790
 O        -1.681727         2.251917        -1.598780
 C        -2.434439         3.036941        -0.704367
 C        -2.677773         2.338904         0.569743
 C        -1.290065         2.248003         1.196274
 H         0.751758        -0.117484         0.827262
 H        -1.797501        -1.088638         0.466201
 H        -2.207392        -0.272300         2.013660
 H        -3.859481         0.727371        -0.112938
 H        -1.411614         0.250826        -1.620045
 H        -1.890042         3.982264        -0.747258
 H        -3.405360         3.231811        -1.162105
 H        -3.545867         2.586923         1.195027
 H        -0.681182         3.184858         1.066245
 H        -1.253192         1.919910         2.226062
