19
Iteration:  1155charge 0 multiplicity 1
 O         0.629680         0.582112         0.729527
 C        -0.740652         0.868188         0.490196
 C        -1.860418        -0.015188         0.984948
 C        -2.709286         0.861615         0.010052
 C        -1.469873         1.089170        -0.945466
 O        -1.598311         2.412029        -1.442278
 C        -2.746662         3.046111        -0.788221
 C        -2.724562         2.326268         0.534056
 C        -1.244103         2.347032         1.037896
 H         0.986903         0.002036         0.076383
 H        -1.587004        -1.047774         0.641573
 H        -2.129842        -0.188181         2.037026
 H        -3.662733         0.420150        -0.260754
 H        -1.461752         0.276357        -1.653660
 H        -2.448642         4.114038        -0.749738
 H        -3.669125         2.864752        -1.512252
 H        -3.450314         2.496610         1.386055
 H        -0.770604         3.332999         0.610106
 H        -1.173123         2.370077         2.229925
