19
Iteration:   942charge 0 multiplicity 1
 O         0.569047         0.681212         0.501859
 C        -0.774497         1.002992         0.545594
 C        -1.853244        -0.086016         1.025763
 C        -2.682133         0.751487         0.075273
 C        -1.489845         1.037788        -0.921785
 O        -1.689938         2.318784        -1.712610
 C        -2.519336         3.124604        -0.795628
 C        -2.656269         2.337045         0.599479
 C        -1.359275         2.238508         1.269729
 H         1.101803         1.013613         1.250157
 H        -1.759885        -1.087083         0.670001
 H        -2.067390        -0.066139         2.079895
 H        -3.672094         0.588005        -0.413472
 H        -1.289124         0.111996        -1.480809
 H        -2.039030         4.114172        -0.503869
 H        -3.505554         3.479529        -1.308282
 H        -3.466004         2.646918         1.165337
 H        -0.733439         3.132626         1.273513
 H        -1.436613         2.006126         2.317416
