19
Iteration:   607charge 0 multiplicity 1
 O         0.540769         0.835373         0.457585
 C        -0.862122         0.959033         0.540291
 C        -1.828994        -0.138424         0.992193
 C        -2.838922         0.842727         0.109982
 C        -1.592508         0.934175        -0.834193
 O        -1.480387         2.260218        -1.548951
 C        -2.456434         3.062837        -0.770844
 C        -2.676382         2.380482         0.534659
 C        -1.330157         2.230830         1.184838
 H         1.026623         1.671023         0.301205
 H        -1.552243        -1.203646         0.601406
 H        -1.911360        -0.390151         2.037345
 H        -3.850040         0.617020         0.031658
 H        -1.290430         0.245725        -1.577079
 H        -2.187991         4.098466        -0.706343
 H        -3.426300         3.031365        -1.262361
 H        -3.594601         2.936990         1.117332
 H        -0.542912         2.946554         0.898378
 H        -1.425495         2.074675         2.207820
