19
Iteration:  2279
 O         0.680685         0.671898         0.586009
 C        -0.714883         1.054794         0.512812
 C        -1.785085        -0.102673         0.984891
 C        -2.863871         0.779003         0.019596
 C        -1.603188         1.030388        -0.872197
 O        -1.680009         2.243817        -1.615185
 C        -2.533075         3.092949        -0.788508
 C        -2.725975         2.313856         0.574779
 C        -1.290411         2.279845         1.293977
 H         1.186911         1.267028        -0.032683
 H        -1.669770        -1.062707         0.581780
 H        -1.950553        -0.140379         2.107651
 H        -3.831415         0.415297        -0.477588
 H        -1.227684         0.366366        -1.623774
 H        -2.239601         4.184487        -0.663057
 H        -3.463879         3.114146        -1.241061
 H        -3.448239         2.885789         1.319001
 H        -0.760705         3.197399         0.746430
 H        -1.224687         2.552636         2.321726
