19
Iteration:  2713
 O         0.600567         0.625125         0.673440
 C        -0.781475         0.906508         0.523315
 C        -1.759966        -0.080151         0.979498
 C        -2.763680         0.803832         0.092323
 C        -1.538260         1.047973        -0.903680
 O        -1.687156         2.358055        -1.661789
 C        -2.626431         3.108190        -0.790740
 C        -2.682969         2.335582         0.585764
 C        -1.226561         2.287907         1.110626
 H         1.100934         1.492630         0.811275
 H        -1.584418        -1.171271         0.714856
 H        -1.952041        -0.056306         2.024609
 H        -3.753320         0.599222        -0.372086
 H        -1.527834         0.254933        -1.645676
 H        -2.356392         4.140568        -0.501192
 H        -3.595727         2.906590        -1.342368
 H        -3.401507         2.620099         1.326015
 H        -0.599000         3.001075         0.634995
 H        -1.209371         2.378229         2.268155
