19
Iteration:   840charge 0 multiplicity 1
 O         0.575604         0.504460         0.743678
 C        -0.754907         1.017783         0.559021
 C        -1.776059        -0.003451         0.958914
 C        -2.735278         0.793363        -0.004135
 C        -1.453632         1.117582        -0.898043
 O        -1.680454         2.398610        -1.594386
 C        -2.761231         3.074612        -0.770671
 C        -2.644475         2.262885         0.558350
 C        -1.188956         2.357559         1.108042
 H         0.753496        -0.071090        -0.013905
 H        -1.452172        -0.987417         0.653045
 H        -2.188119        -0.145941         2.037715
 H        -3.717277         0.323989        -0.277365
 H        -1.163234         0.284883        -1.585933
 H        -2.364879         4.115180        -0.563030
 H        -3.738569         3.074512        -1.425239
 H        -3.483756         2.605338         1.270714
 H        -0.783607         3.166896         0.540698
 H        -1.222895         2.562787         2.117376
