19
Iteration:   883charge 0 multiplicity 1
 O         0.570386         0.838771         0.524207
 C        -0.825628         0.936718         0.551056
 C        -1.858239        -0.058669         0.962916
 C        -2.824880         0.787666         0.064448
 C        -1.569434         0.989772        -0.860354
 O        -1.564816         2.357914        -1.504338
 C        -2.571544         3.077758        -0.828214
 C        -2.636399         2.312074         0.525899
 C        -1.241979         2.201278         1.178476
 H         1.007056         0.083180         0.884044
 H        -1.802444        -1.133608         0.584751
 H        -1.883632        -0.151288         2.147548
 H        -3.846879         0.684885        -0.338491
 H        -1.193634         0.340271        -1.665839
 H        -2.207496         4.125750        -0.812759
 H        -3.484636         3.017250        -1.466183
 H        -3.464587         2.684363         1.271273
 H        -0.478751         2.949041         0.974539
 H        -1.213884         2.122119         2.243534
