19
Iteration:  1499
 O         0.579098         0.622616         0.634945
 C        -0.789915         1.053525         0.527593
 C        -1.865658        -0.003220         0.936041
 C        -2.733979         0.807669         0.041643
 C        -1.496795         1.028466        -0.959923
 O        -1.720605         2.296017        -1.623826
 C        -2.597682         3.063153        -0.748465
 C        -2.649163         2.262013         0.514809
 C        -1.194239         2.285788         1.212405
 H         0.880733         1.322051         1.191054
 H        -1.567726        -1.048850         0.678586
 H        -2.373187        -0.137975         2.006120
 H        -3.750360         0.680441        -0.251942
 H        -1.124006         0.158717        -1.568884
 H        -2.192052         4.036982        -0.542552
 H        -3.481284         3.318002        -1.303570
 H        -3.288029         2.600562         1.293125
 H        -0.615812         3.144264         0.967778
 H        -1.113769         2.072890         2.327190
