19
Iteration:  1811charge 0 multiplicity 1
 O         0.603840         0.683955         0.526488
 C        -0.787973         1.024374         0.468610
 C        -1.782790         0.022385         0.952627
 C        -2.748540         0.866537         0.037994
 C        -1.602573         1.060688        -0.934218
 O        -1.603211         2.277207        -1.564261
 C        -2.620675         3.016377        -0.726611
 C        -2.695720         2.270497         0.592202
 C        -1.225237         2.294349         1.195741
 H         0.959458         0.209487         1.314715
 H        -1.721394        -1.038799         0.682996
 H        -2.015798         0.155550         2.025473
 H        -3.784773         0.568793        -0.373609
 H        -1.186553         0.167878        -1.405536
 H        -2.335585         4.097331        -0.598327
 H        -3.646347         2.899845        -1.270986
 H        -3.585282         2.446372         1.279860
 H        -0.679292         3.087069         0.892294
 H        -1.264615         2.189574         2.284423
