19
Iteration:  2990charge 0 multiplicity 1
 O         0.670283         0.597118         0.669222
 C        -0.695422         0.992881         0.506647
 C        -1.836459        -0.027231         0.895295
 C        -2.794957         0.816044         0.027379
 C        -1.555743         1.099631        -0.901751
 O        -1.645269         2.348056        -1.637891
 C        -2.716304         3.057624        -0.708238
 C        -2.722224         2.303109         0.621987
 C        -1.235299         2.282367         1.176928
 H         1.147717         0.701091        -0.154249
 H        -1.626186        -1.033213         0.478269
 H        -2.009512        -0.077311         2.041292
 H        -3.745512         0.408327        -0.364597
 H        -1.166529         0.331879        -1.535894
 H        -2.312464         4.139612        -0.553930
 H        -3.732577         3.144762        -1.165044
 H        -3.415450         2.458604         1.395083
 H        -0.488488         3.184558         0.940428
 H        -1.191227         2.145370         2.272915
