19
Iteration:  4497
 O         0.559900         0.589555         0.641240
 C        -0.774881         0.950997         0.498328
 C        -1.845443        -0.034608         0.957247
 C        -2.737989         0.788513         0.080571
 C        -1.463901         0.988595        -0.881934
 O        -1.675137         2.371013        -1.532128
 C        -2.589737         3.080072        -0.735218
 C        -2.662763         2.330225         0.566810
 C        -1.254581         2.335715         1.043939
 H         1.068022         1.444623         0.727186
 H        -1.849359        -0.971327         0.339897
 H        -2.074595        -0.198039         2.032025
 H        -3.775145         0.422546        -0.128426
 H        -1.147708         0.348847        -1.798069
 H        -2.458804         4.151895        -0.670984
 H        -3.546918         3.114277        -1.339422
 H        -3.542260         2.549912         1.128919
 H        -0.552895         3.020987         0.680255
 H        -1.140639         2.287438         2.202844
