19
Iteration:  3847charge 0 multiplicity 1
 O         0.616394         0.590919         0.654106
 C        -0.687185         0.996747         0.463379
 C        -1.884308         0.006566         0.898901
 C        -2.775500         0.811098         0.058565
 C        -1.531377         1.043052        -0.893171
 O        -1.681131         2.286221        -1.465072
 C        -2.654329         3.016540        -0.800298
 C        -2.678891         2.334475         0.544578
 C        -1.230439         2.296377         1.161720
 H         1.138945         1.309675         0.313216
 H        -1.961966        -0.987484         0.409633
 H        -1.944689         0.101473         1.985901
 H        -3.606680         0.411383        -0.423628
 H        -0.998002         0.504120        -1.692250
 H        -2.243075         4.065050        -0.694513
 H        -3.690385         3.184904        -1.229119
 H        -3.394750         2.803209         1.289037
 H        -0.654348         3.271524         0.873103
 H        -1.123609         2.052959         2.218966
