19
Iteration:  3833charge 0 multiplicity 1
 O         0.582573         0.620298         0.623393
 C        -0.786710         0.991968         0.487478
 C        -1.793467        -0.024029         0.964670
 C        -2.766712         0.814339         0.012589
 C        -1.521111         1.020152        -0.890993
 O        -1.643390         2.289672        -1.551362
 C        -2.609893         3.133542        -0.702389
 C        -2.662173         2.297884         0.531514
 C        -1.271122         2.277298         1.121922
 H         1.207303         1.295350         0.263471
 H        -1.445990        -0.987096         0.613652
 H        -2.123427        -0.082035         2.017369
 H        -3.781854         0.506366        -0.169229
 H        -1.441750         0.112403        -1.466040
 H        -2.247660         4.144837        -0.641147
 H        -3.498947         3.130607        -1.254683
 H        -3.453258         2.528112         1.237857
 H        -0.661077         3.196418         0.928202
 H        -1.461594         2.275634         2.292402
