19
Iteration:   930
 O         0.594105         0.754850         0.432700
 C        -0.777213         0.989499         0.508059
 C        -1.844288        -0.035104         0.984511
 C        -2.757277         0.823981         0.043594
 C        -1.520058         1.043118        -0.847702
 O        -1.702967         2.233625        -1.615482
 C        -2.431237         3.109671        -0.751537
 C        -2.700116         2.313666         0.486558
 C        -1.332815         2.209949         1.348719
 H         0.898577         0.813885         1.389021
 H        -1.643951        -1.005282         0.654485
 H        -2.190159        -0.067903         2.057858
 H        -3.661171         0.244491        -0.288886
 H        -1.159977         0.350663        -1.600842
 H        -1.791880         4.022739        -0.618402
 H        -3.450934         3.326382        -1.240605
 H        -3.504540         2.748874         1.013233
 H        -0.747404         3.066935         1.189866
 H        -1.468364         2.045441         2.362668
