19
Iteration:  1426
 O         0.625433         0.649654         0.596712
 C        -0.729801         1.043603         0.543952
 C        -1.910056         0.004115         0.958936
 C        -2.799944         0.834925        -0.027499
 C        -1.526365         1.093347        -0.854246
 O        -1.554332         2.281404        -1.525072
 C        -2.602999         3.012807        -0.780614
 C        -2.764380         2.274575         0.591993
 C        -1.223239         2.286682         1.167845
 H         0.897182         0.659526        -0.338332
 H        -1.804100        -1.095926         0.733667
 H        -2.163144         0.082480         1.918797
 H        -3.749097         0.498330        -0.360731
 H        -1.196733         0.251045        -1.509685
 H        -2.246712         4.063150        -0.584094
 H        -3.537014         3.171892        -1.414940
 H        -3.711781         2.426453         1.182998
 H        -0.595209         3.158115         1.002537
 H        -1.160697         2.107284         2.297253
