19
Iteration:   290charge 0 multiplicity 1
 O         0.627378         0.880117         0.493618
 C        -0.785561         1.004796         0.490332
 C        -1.915235        -0.040827         0.928334
 C        -2.841718         0.842630         0.042396
 C        -1.564322         0.977192        -0.863789
 O        -1.702612         2.140015        -1.617832
 C        -2.361742         3.027278        -0.714515
 C        -2.694984         2.310759         0.549245
 C        -1.266634         2.214238         1.280858
 H         0.959333         1.243585         1.339010
 H        -1.940882        -1.011975         0.387546
 H        -2.020010        -0.012351         1.977292
 H        -3.764534         0.503324        -0.420261
 H        -1.283583         0.256677        -1.600469
 H        -1.684690         3.941142        -0.488393
 H        -3.342415         3.281612        -1.187746
 H        -3.420113         2.934066         1.167485
 H        -0.676208         3.225037         1.136716
 H        -1.279817         2.097232         2.384673
