19
Iteration:  4935charge 0 multiplicity 1
 O         0.568769         0.522107         0.695572
 C        -0.735755         1.047547         0.478743
 C        -1.795594        -0.027382         0.944386
 C        -2.793282         0.828309        -0.018203
 C        -1.561408         1.021939        -0.868463
 O        -1.687840         2.315071        -1.589392
 C        -2.605075         3.101918        -0.702849
 C        -2.627896         2.302858         0.550008
 C        -1.253488         2.305585         1.113965
 H         1.224568         1.213332         0.525841
 H        -1.624304        -1.120661         0.499462
 H        -1.887998        -0.160676         2.087553
 H        -3.788640         0.442749        -0.291046
 H        -1.237260         0.379359        -1.720038
 H        -2.296041         4.143552        -0.713694
 H        -3.580389         3.316817        -1.278591
 H        -3.316227         2.665140         1.333049
 H        -0.724885         3.229189         0.860177
 H        -1.213430         2.337675         2.301219
