19
Iteration:  3767
 O         0.600069         0.659336         0.598128
 C        -0.752274         0.959033         0.468759
 C        -1.860314        -0.057161         0.895473
 C        -2.807723         0.793620         0.164561
 C        -1.545119         1.075359        -0.864155
 O        -1.610225         2.300606        -1.588627
 C        -2.574649         3.080290        -0.802364
 C        -2.673621         2.326902         0.566460
 C        -1.285613         2.261412         1.193829
 H         1.079071         1.424865         0.268836
 H        -1.644492        -1.086446         0.704466
 H        -2.066425        -0.080589         1.978827
 H        -3.827099         0.450944        -0.080996
 H        -1.132595         0.478349        -1.697295
 H        -2.344539         4.125497        -0.693775
 H        -3.492448         2.910547        -1.347473
 H        -3.466364         2.631457         1.232586
 H        -0.569934         3.081062         0.887702
 H        -1.197514         2.246067         2.396462
