19
Iteration:  3245charge 0 multiplicity 1
 O         0.580770         0.604132         0.600839
 C        -0.693724         0.944530         0.547522
 C        -1.750378        -0.091670         0.898610
 C        -2.715740         0.837407         0.012981
 C        -1.560403         1.121294        -0.809234
 O        -1.778039         2.316494        -1.552782
 C        -2.683686         3.089205        -0.830485
 C        -2.702253         2.354489         0.590631
 C        -1.165919         2.231531         1.184311
 H         1.156515         1.355914         0.402238
 H        -1.611914        -1.158329         0.502918
 H        -2.033106         0.005241         1.947721
 H        -3.569138         0.403078        -0.477651
 H        -1.244240         0.339698        -1.448578
 H        -2.194015         4.112773        -0.602547
 H        -3.615482         3.099291        -1.362330
 H        -3.496039         2.796244         1.223676
 H        -0.630822         3.173361         0.877199
 H        -1.161419         2.114580         2.311031
