19
Iteration:   958
 O         0.619404         0.579906         0.636151
 C        -0.739054         0.983899         0.509051
 C        -1.825691        -0.028024         0.943949
 C        -2.789484         0.870926        -0.003445
 C        -1.558108         1.070510        -0.887495
 O        -1.682917         2.291196        -1.601269
 C        -2.601597         3.104472        -0.764309
 C        -2.703131         2.261618         0.528366
 C        -1.209074         2.287637         1.222972
 H         1.034059         1.400997         1.013564
 H        -1.564828        -1.025061         0.497806
 H        -2.087736        -0.069725         2.033026
 H        -3.720905         0.426614        -0.314038
 H        -1.175552         0.414503        -1.671358
 H        -2.161405         4.091217        -0.750473
 H        -3.543221         3.125003        -1.275952
 H        -3.506378         2.555451         1.291778
 H        -0.637197         3.248587         0.930864
 H        -1.324138         2.094738         2.366747
