19
Iteration:  2750
 O         0.660978         0.672370         0.519580
 C        -0.747842         0.991882         0.569235
 C        -1.869435        -0.070383         0.955811
 C        -2.783469         0.854775         0.023665
 C        -1.558648         0.981202        -0.843385
 O        -1.605986         2.266223        -1.599424
 C        -2.548725         3.048344        -0.747849
 C        -2.715091         2.319213         0.580192
 C        -1.329815         2.296487         1.216044
 H         1.036396         1.529094         0.140336
 H        -1.472307        -1.050224         0.634750
 H        -2.109963         0.033454         2.140204
 H        -3.717095         0.467776        -0.338266
 H        -1.504337         0.175272        -1.585492
 H        -2.309507         4.201309        -0.582011
 H        -3.548451         3.157474        -1.286309
 H        -3.495973         2.750298         1.258484
 H        -0.718722         3.201640         0.867231
 H        -1.216461         2.268264         2.255815
