19
Iteration:  3071charge 0 multiplicity 1
 O         0.590988         0.666814         0.505055
 C        -0.778630         0.936241         0.537510
 C        -1.824875        -0.031300         0.955809
 C        -2.761346         0.732293         0.052469
 C        -1.563685         1.060213        -0.865412
 O        -1.621509         2.294687        -1.561611
 C        -2.669737         3.162916        -0.775703
 C        -2.737561         2.407886         0.509965
 C        -1.179261         2.195980         1.234936
 H         1.051784         1.473341         0.535097
 H        -1.319133        -1.031327         0.660200
 H        -2.003113        -0.125896         1.970707
 H        -3.627117         0.114020        -0.185665
 H        -1.214597         0.380004        -1.644772
 H        -2.328873         4.141070        -0.563699
 H        -3.688672         3.102846        -1.433978
 H        -3.327442         2.785964         1.460071
 H        -0.497558         3.079733         1.185221
 H        -1.196294         1.942052         2.392852
