19
Iteration:  3831
 O         0.576422         0.627634         0.618414
 C        -0.783890         0.978517         0.492965
 C        -1.786053        -0.036774         0.986657
 C        -2.756292         0.822403         0.019768
 C        -1.540400         1.021793        -0.892443
 O        -1.637889         2.296927        -1.572600
 C        -2.588126         3.127293        -0.701382
 C        -2.687292         2.301713         0.533877
 C        -1.261000         2.284554         1.132824
 H         1.182443         1.272094         0.272242
 H        -1.386571        -0.968812         0.558321
 H        -2.146894        -0.059599         2.024685
 H        -3.838033         0.487071        -0.233778
 H        -1.436280         0.108256        -1.485693
 H        -2.302128         4.170961        -0.606843
 H        -3.484498         3.153179        -1.287376
 H        -3.497157         2.448427         1.221177
 H        -0.674584         3.147151         0.918871
 H        -1.411196         2.269173         2.290673
