19
Iteration:  1558charge 0 multiplicity 1
 O         0.581538         0.777071         0.408737
 C        -0.849153         0.989595         0.550798
 C        -1.857318        -0.102662         0.977363
 C        -2.809017         0.824408         0.008272
 C        -1.567335         1.037559        -0.836264
 O        -1.503175         2.248001        -1.555079
 C        -2.526893         3.055472        -0.785875
 C        -2.685307         2.315310         0.594309
 C        -1.283103         2.265793         1.245262
 H         0.902200         1.014666         1.307815
 H        -1.658543        -1.124922         0.541921
 H        -2.276317         0.033806         1.911349
 H        -3.827596         0.387316        -0.243914
 H        -1.225594         0.269973        -1.529452
 H        -2.265682         4.127948        -0.693775
 H        -3.465989         2.932516        -1.232393
 H        -3.535675         2.793261         1.211338
 H        -0.496082         3.044002         0.873785
 H        -1.278988         2.312613         2.411818
