19
Iteration:  1963charge 0 multiplicity 1
 O         0.581596         0.661453         0.570864
 C        -0.757266         0.931696         0.500915
 C        -1.805802        -0.056017         1.044170
 C        -2.808175         0.752360         0.067995
 C        -1.510451         1.037279        -0.850956
 O        -1.606900         2.432685        -1.498706
 C        -2.651201         3.060632        -0.855694
 C        -2.681440         2.310651         0.547198
 C        -1.253289         2.248521         1.132758
 H         1.009986         1.115850        -0.225595
 H        -1.699786        -1.051553         0.551718
 H        -1.926763        -0.111265         2.173380
 H        -3.778167         0.290807        -0.302673
 H        -1.017440         0.407091        -1.597527
 H        -2.506976         4.091974        -0.684210
 H        -3.711783         3.020645        -1.312179
 H        -3.457718         2.786253         1.256423
 H        -0.471959         3.109012         0.867222
 H        -1.238878         2.231851         2.359295
