19
Iteration:  4902
 O         0.598919         0.599895         0.566831
 C        -0.720667         1.003336         0.488574
 C        -1.878538        -0.023962         1.024630
 C        -2.843788         0.860206         0.044151
 C        -1.510808         1.041941        -0.825608
 O        -1.590772         2.336282        -1.575424
 C        -2.621082         3.088862        -0.799241
 C        -2.674076         2.305939         0.539277
 C        -1.244568         2.231426         1.185101
 H         1.230790         1.245399         0.146488
 H        -1.893711        -1.026456         0.455003
 H        -2.120817        -0.072675         2.143573
 H        -3.822098         0.489231        -0.324141
 H        -1.068007         0.277294        -1.521392
 H        -2.262345         4.107113        -0.655298
 H        -3.652306         2.936775        -1.308633
 H        -3.260113         2.583548         1.409262
 H        -0.754084         3.120056         0.865600
 H        -1.419127         2.084915         2.317144
