19
Iteration:  1306charge 0 multiplicity 1
 O         0.573181         0.589592         0.677659
 C        -0.755851         0.954303         0.450883
 C        -1.824455         0.042209         0.915191
 C        -2.739604         0.806894        -0.016101
 C        -1.507958         1.027937        -0.830014
 O        -1.530713         2.401548        -1.473889
 C        -2.718340         3.038587        -0.779679
 C        -2.736779         2.260994         0.574185
 C        -1.207327         2.402555         1.117860
 H         0.622443        -0.263356         0.250135
 H        -1.539902        -0.996376         0.539948
 H        -2.056088         0.150510         1.950974
 H        -3.726606         0.465309        -0.271526
 H        -1.352212         0.287967        -1.661416
 H        -2.427888         4.109535        -0.961403
 H        -3.758720         2.743248        -1.218911
 H        -3.582679         2.506632         1.321366
 H        -0.805040         3.331312         0.819024
 H        -0.978206         2.231366         2.064326
