19
Iteration:  1928
 O         0.635506         0.583229         0.750369
 C        -0.711058         1.053291         0.529845
 C        -1.816616         0.074148         0.847884
 C        -2.838887         0.779524         0.023447
 C        -1.553873         1.018658        -0.888459
 O        -1.734419         2.337411        -1.570712
 C        -2.641372         3.068562        -0.776034
 C        -2.674168         2.238729         0.594926
 C        -1.196754         2.297658         1.155179
 H         1.155536         0.889970        -0.054773
 H        -1.490256        -0.946761         0.391900
 H        -1.889612        -0.144571         1.887405
 H        -3.671085         0.455249        -0.566247
 H        -1.163037         0.316030        -1.649857
 H        -2.270364         4.063842        -0.579109
 H        -3.726521         3.088392        -1.193018
 H        -3.408789         2.587402         1.408876
 H        -0.567669         3.159922         0.646367
 H        -1.015087         2.250379         2.274761
