19
Iteration:    68
 O         0.629761         0.530649         0.565053
 C        -0.702175         1.013585         0.540718
 C        -1.895103        -0.012836         0.916102
 C        -2.752723         0.878121        -0.013431
 C        -1.468789         1.102450        -0.910704
 O        -1.660457         2.295965        -1.545081
 C        -2.651237         3.027410        -0.748355
 C        -2.762373         2.266136         0.592028
 C        -1.240596         2.385322         1.169477
 H         1.034778         0.570085         1.473349
 H        -1.636855        -0.896640         0.461912
 H        -2.224607        -0.248335         1.978687
 H        -3.764587         0.515720        -0.390587
 H        -1.027136         0.350403        -1.656065
 H        -2.162242         4.005360        -0.655342
 H        -3.544163         3.159339        -1.270884
 H        -3.500411         2.611029         1.363593
 H        -0.672498         3.205996         0.817094
 H        -1.152167         2.394898         2.275672
