19
Iteration:  3494charge 0 multiplicity 1
 O         0.651858         0.708780         0.554851
 C        -0.766355         0.984928         0.526981
 C        -1.795091         0.010890         0.925548
 C        -2.794335         0.882648         0.049463
 C        -1.582106         0.996164        -0.960813
 O        -1.621556         2.215227        -1.528124
 C        -2.592940         3.112906        -0.704246
 C        -2.734310         2.323571         0.555143
 C        -1.295933         2.210260         1.221840
 H         1.081074         1.407810         0.080653
 H        -1.761796        -1.100388         0.462911
 H        -2.035524        -0.097674         2.036896
 H        -3.619660         0.160277        -0.152518
 H        -1.410263         0.160084        -1.551836
 H        -2.034622         4.052909        -0.650320
 H        -3.510614         3.189873        -1.179048
 H        -3.455483         2.725036         1.225034
 H        -0.479418         3.081897         0.921977
 H        -1.342315         2.196280         2.285210
