19
Iteration:   974
 O         0.586263         0.583837         0.744304
 C        -0.725948         0.975672         0.479802
 C        -1.858106        -0.010778         0.846117
 C        -2.732383         0.812930        -0.000202
 C        -1.520471         1.038794        -0.896461
 O        -1.654557         2.349643        -1.454377
 C        -2.671518         3.036938        -0.776684
 C        -2.669822         2.361420         0.604721
 C        -1.236751         2.289508         1.053004
 H         1.314523         1.236804         0.489437
 H        -1.769171        -0.979329         0.391714
 H        -2.023814        -0.159288         1.977341
 H        -3.704989         0.460740        -0.433809
 H        -1.407695         0.168986        -1.569875
 H        -2.324693         4.074176        -0.531560
 H        -3.684342         2.906261        -1.278646
 H        -3.449105         2.740792         1.188813
 H        -0.666112         3.032495         0.633046
 H        -1.028777         2.345275         2.052572
