19
Iteration:  2524charge 0 multiplicity 1
 O         0.641783         0.577211         0.680997
 C        -0.702205         1.038567         0.478532
 C        -1.874157        -0.063331         0.981880
 C        -2.801986         0.831286         0.090817
 C        -1.531526         1.069822        -0.848346
 O        -1.632480         2.372279        -1.536253
 C        -2.719290         3.073941        -0.790639
 C        -2.652075         2.237095         0.516527
 C        -1.194641         2.318229         1.043899
 H         1.257301         1.260726         0.453461
 H        -1.596604        -1.091998         0.751368
 H        -2.025426        -0.068885         2.021245
 H        -3.737680         0.509454        -0.329647
 H        -1.523020         0.195334        -1.598711
 H        -2.528091         4.106639        -0.871330
 H        -3.724537         2.879096        -1.331162
 H        -3.481830         2.334297         1.296686
 H        -0.864343         3.260322         0.728441
 H        -1.026198         2.174405         2.168377
