19
Iteration:  4992
 O         0.561031         0.620807         0.566242
 C        -0.773166         0.986457         0.505747
 C        -1.891511         0.004217         0.945686
 C        -2.751798         0.847544         0.042096
 C        -1.526006         1.023908        -0.878729
 O        -1.597766         2.336164        -1.531732
 C        -2.613788         3.041632        -0.811431
 C        -2.710133         2.310014         0.579136
 C        -1.196087         2.240399         1.218779
 H         1.157645         1.392747         0.413075
 H        -1.912675        -1.011129         0.433743
 H        -1.989714        -0.069435         2.065117
 H        -3.659513         0.391506        -0.258796
 H        -1.323400         0.292010        -1.645616
 H        -2.146531         3.956124        -0.555085
 H        -3.519937         3.044872        -1.463468
 H        -3.465444         2.785690         1.240666
 H        -0.694212         3.137105         0.922159
 H        -1.125453         2.134061         2.354119
