19
Iteration:  3519charge 0 multiplicity 1
 O         0.566120         0.693340         0.568172
 C        -0.793503         1.008718         0.438563
 C        -1.807429        -0.163815         0.950860
 C        -2.821621         0.808879         0.066419
 C        -1.552189         1.084961        -0.873896
 O        -1.638732         2.281324        -1.584383
 C        -2.572797         3.074387        -0.784186
 C        -2.599570         2.301309         0.624519
 C        -1.278909         2.297418         1.203376
 H         1.113329         1.496192         0.486811
 H        -1.549700        -1.179267         0.608178
 H        -2.044419        -0.100106         2.096680
 H        -3.735976         0.437709        -0.323772
 H        -1.390190         0.182512        -1.542497
 H        -2.083087         4.111192        -0.699751
 H        -3.573056         3.073725        -1.200592
 H        -3.402162         2.818375         1.289583
 H        -0.686777         3.305864         1.006820
 H        -1.192298         2.130732         2.299180
