19
Iteration:  1448
 O         0.547834         0.576378         0.654538
 C        -0.794452         0.997766         0.512226
 C        -1.841191        -0.027315         0.995839
 C        -2.752248         0.772503         0.066214
 C        -1.497652         1.054225        -0.938363
 O        -1.532996         2.398040        -1.451178
 C        -2.653312         3.027729        -0.775514
 C        -2.660063         2.322071         0.505807
 C        -1.288327         2.324469         1.092979
 H         0.964608         0.997499        -0.142163
 H        -1.830790        -1.039334         0.524182
 H        -1.856806        -0.066789         1.999461
 H        -3.672727         0.413201        -0.355141
 H        -1.423847         0.244726        -1.674028
 H        -2.531444         4.132744        -0.864860
 H        -3.631766         2.839512        -1.311111
 H        -3.385793         2.614504         1.299672
 H        -0.622221         3.159833         0.824877
 H        -1.212084         2.274842         2.218048
