19
Iteration:    27
 O         0.714994         0.566888         0.780936
 C        -0.720539         0.901279         0.459397
 C        -1.876880         0.008543         0.903728
 C        -2.759749         0.851986         0.029414
 C        -1.567475         1.103989        -1.025258
 O        -1.685207         2.400845        -1.518558
 C        -2.736250         3.048312        -0.771168
 C        -2.664566         2.319979         0.577483
 C        -1.154914         2.256752         1.072104
 H         0.773075         0.589992         1.738831
 H        -1.754989        -1.017505         0.527024
 H        -1.934437        -0.155668         2.072408
 H        -3.768646         0.581527        -0.427381
 H        -1.309299         0.398568        -1.900182
 H        -2.548146         4.164091        -0.624755
 H        -3.767505         3.177318        -1.436808
 H        -3.400249         2.590724         1.378539
 H        -0.632272         3.106369         0.634626
 H        -1.179557         2.010360         2.163775
