19
Iteration:    32
 O         0.628145         0.564177         0.773549
 C        -0.742088         0.925142         0.513160
 C        -1.846216        -0.011216         0.933100
 C        -2.733879         0.827288         0.000971
 C        -1.521621         1.115604        -1.044245
 O        -1.738139         2.397976        -1.492804
 C        -2.771946         3.060917        -0.798809
 C        -2.636301         2.317169         0.570216
 C        -1.084100         2.253256         1.056654
 H         0.712489         0.573201         1.767321
 H        -1.692089        -1.042053         0.400604
 H        -1.955931        -0.247516         1.939136
 H        -3.721201         0.616086        -0.326021
 H        -1.210520         0.500492        -1.837035
 H        -2.461162         4.087357        -0.645337
 H        -3.623809         3.195318        -1.376734
 H        -3.338371         2.600255         1.335291
 H        -0.529039         3.162979         0.610997
 H        -1.202187         2.120172         2.140905
