19
Iteration:  4474charge 0 multiplicity 1
 O         0.583694         0.566450         0.661557
 C        -0.732819         0.997120         0.517762
 C        -1.831796        -0.023936         0.916119
 C        -2.760158         0.816456         0.022704
 C        -1.599155         1.093053        -0.866438
 O        -1.591109         2.326204        -1.530039
 C        -2.675479         3.030303        -0.781074
 C        -2.682146         2.284857         0.601546
 C        -1.190478         2.304593         1.127482
 H         1.090235         1.312434         0.354940
 H        -1.464616        -1.019282         0.552719
 H        -2.089572        -0.001904         1.991114
 H        -3.796212         0.579969        -0.422412
 H        -1.523737         0.282683        -1.722855
 H        -2.587086         4.112744        -0.745542
 H        -3.467601         3.037688        -1.589595
 H        -3.408185         2.732426         1.255698
 H        -0.620153         3.113744         0.746386
 H        -1.164014         2.348737         2.298526
