19
Iteration:  4910
 O         0.627063         0.554417         0.589534
 C        -0.746309         0.989298         0.514103
 C        -1.902391        -0.026127         0.970031
 C        -2.731367         0.879938         0.047305
 C        -1.520072         1.065681        -0.875507
 O        -1.615312         2.295144        -1.568340
 C        -2.633388         3.084636        -0.774957
 C        -2.722005         2.306854         0.552402
 C        -1.237316         2.271550         1.208099
 H         1.096544         1.347373         0.212618
 H        -1.786103        -1.034895         0.604637
 H        -2.047562         0.008021         2.056672
 H        -3.741633         0.479801        -0.120806
 H        -1.343635         0.368279        -1.680114
 H        -2.374428         4.150650        -0.804936
 H        -3.515071         3.147440        -1.395438
 H        -3.590136         2.556556         1.153443
 H        -0.645922         3.243859         0.955955
 H        -1.139154         2.089387         2.256326
