19
Iteration:    59charge 0 multiplicity 1
 O         0.619004         0.492430         0.622195
 C        -0.756848         1.027947         0.577578
 C        -1.881346        -0.054005         0.882212
 C        -2.745347         0.803015        -0.047442
 C        -1.451681         1.115989        -0.882950
 O        -1.690593         2.331703        -1.632199
 C        -2.672439         3.043681        -0.695387
 C        -2.660851         2.294687         0.673446
 C        -1.214824         2.410465         1.108043
 H         0.891306         0.555489         1.578910
 H        -1.596462        -0.933616         0.372820
 H        -2.086396        -0.231557         2.006697
 H        -3.698174         0.642856        -0.655172
 H        -1.139462         0.244132        -1.563830
 H        -2.296082         4.103153        -0.521632
 H        -3.629466         3.005963        -1.308911
 H        -3.528312         2.612057         1.312978
 H        -0.868957         3.294156         0.638397
 H        -1.117172         2.633978         2.182842
