19
Iteration:  4292
 O         0.648040         0.646253         0.603910
 C        -0.776851         1.025886         0.469913
 C        -1.903249        -0.044217         0.941657
 C        -2.749967         0.856177         0.072975
 C        -1.513505         0.991789        -0.905017
 O        -1.597851         2.290053        -1.539946
 C        -2.636473         3.030068        -0.730874
 C        -2.632160         2.317579         0.581908
 C        -1.303608         2.323134         1.197688
 H         1.234769         1.162279         0.006753
 H        -1.885486        -1.047533         0.401765
 H        -2.357907        -0.218740         1.940723
 H        -3.682450         0.451158        -0.367428
 H        -1.353036         0.146494        -1.706561
 H        -2.305243         4.151697        -0.657152
 H        -3.655960         3.151753        -1.356380
 H        -3.408476         2.668638         1.364348
 H        -0.702118         3.224576         0.876343
 H        -1.307678         2.140182         2.214641
