19
Iteration:  4586charge 0 multiplicity 1
 O         0.595385         0.671493         0.612627
 C        -0.743024         0.933239         0.445389
 C        -1.866949        -0.050889         0.998128
 C        -2.759852         0.856942         0.011286
 C        -1.597063         1.034887        -0.849060
 O        -1.575474         2.340809        -1.533853
 C        -2.535623         3.012393        -0.722154
 C        -2.703800         2.286570         0.550772
 C        -1.309500         2.308010         1.126277
 H         1.156775         1.099954        -0.077317
 H        -1.841894        -1.028110         0.580824
 H        -2.030149         0.069393         2.070301
 H        -3.721520         0.709663        -0.318426
 H        -1.296368         0.183441        -1.428523
 H        -2.297129         4.045507        -0.562948
 H        -3.526732         3.098005        -1.309284
 H        -3.440216         2.595345         1.239824
 H        -0.627399         3.049166         0.854519
 H        -1.318363         2.223000         2.238678
