19
Iteration:   238charge 0 multiplicity 1
 O         0.620431         0.655305         0.472013
 C        -0.764347         1.016842         0.465143
 C        -1.868834         0.069316         0.999077
 C        -2.737054         0.869141         0.090744
 C        -1.545397         1.014386        -0.877015
 O        -1.530201         2.291972        -1.491153
 C        -2.630089         3.047986        -0.793871
 C        -2.719077         2.270351         0.540099
 C        -1.293114         2.272565         1.150697
 H         0.820525         0.453617         1.396566
 H        -1.609200        -1.038473         0.608968
 H        -2.091725        -0.054190         2.080934
 H        -3.688979         0.555029        -0.205670
 H        -1.384238         0.336789        -1.651653
 H        -2.285692         4.097054        -0.667105
 H        -3.549953         2.945134        -1.304437
 H        -3.476201         2.447031         1.290936
 H        -0.861897         3.310568         0.988229
 H        -1.430152         1.886830         2.135482
