19
Iteration:  4288charge 0 multiplicity 1
 O         0.639671         0.653683         0.593900
 C        -0.782615         1.033278         0.457431
 C        -1.914162        -0.074595         0.961169
 C        -2.743522         0.849584         0.088911
 C        -1.484926         1.004239        -0.891921
 O        -1.610311         2.289240        -1.540793
 C        -2.613342         3.065803        -0.753205
 C        -2.670477         2.305675         0.583844
 C        -1.271166         2.302308         1.180050
 H         1.226380         1.192401         0.053459
 H        -1.779299        -0.991028         0.374142
 H        -2.314730        -0.228113         1.979667
 H        -3.672874         0.541697        -0.400821
 H        -1.503221         0.177505        -1.611882
 H        -2.292281         4.091019        -0.735790
 H        -3.555804         3.111198        -1.148677
 H        -3.432372         2.630182         1.210346
 H        -0.710928         3.161941         0.895927
 H        -1.482086         2.206993         2.296502
