19
Iteration:  3526charge 0 multiplicity 1
 O         0.555577         0.666935         0.553591
 C        -0.790046         0.981220         0.525381
 C        -1.803762        -0.168028         0.987674
 C        -2.735219         0.800789         0.073794
 C        -1.540107         1.064604        -0.905956
 O        -1.656086         2.301058        -1.597700
 C        -2.594673         3.126172        -0.752580
 C        -2.687759         2.351993         0.561957
 C        -1.246286         2.260476         1.200967
 H         1.023614         1.556286         0.527771
 H        -1.596937        -1.198930         0.535851
 H        -1.963441        -0.037711         2.064279
 H        -3.685258         0.320740        -0.339336
 H        -1.248449         0.293836        -1.548604
 H        -2.213337         4.142014        -0.773734
 H        -3.612187         3.113027        -1.143621
 H        -3.303703         2.789070         1.291581
 H        -0.528997         3.061796         0.798325
 H        -1.308457         2.278717         2.269480
