19
Iteration:  2380
 O         0.614757         0.576874         0.537022
 C        -0.706416         1.003761         0.552146
 C        -1.855470         0.016727         1.010292
 C        -2.744418         0.800642         0.070486
 C        -1.542843         0.993707        -0.944189
 O        -1.579968         2.414933        -1.480393
 C        -2.741510         2.990530        -0.837082
 C        -2.695428         2.288291         0.596832
 C        -1.239105         2.330405         1.117927
 H         1.294621         1.237664         0.748275
 H        -1.935617        -0.943588         0.545838
 H        -1.902965        -0.042569         2.110991
 H        -3.763122         0.476902        -0.111420
 H        -1.235241         0.322340        -1.800954
 H        -2.486041         4.026890        -0.960110
 H        -3.671503         2.762022        -1.270627
 H        -3.537343         2.461216         1.395945
 H        -0.673690         3.239333         0.710889
 H        -1.156532         2.319135         2.201549
