19
Iteration:   517charge 0 multiplicity 1
 O         0.626290         0.494230         0.801614
 C        -0.655764         0.940952         0.482339
 C        -1.882781         0.072270         0.900250
 C        -2.711542         0.936944         0.044034
 C        -1.510872         1.062220        -0.963249
 O        -1.685814         2.382466        -1.506953
 C        -2.777038         2.974791        -0.809218
 C        -2.644142         2.283367         0.580232
 C        -1.205432         2.338707         1.055176
 H         1.247555         1.245848         0.584888
 H        -1.737211        -0.962714         0.517226
 H        -2.009853        -0.128421         2.021825
 H        -3.645026         0.554593        -0.345239
 H        -1.608043         0.241033        -1.684680
 H        -2.581437         3.995795        -0.689617
 H        -3.692610         2.777957        -1.333080
 H        -3.494369         2.350165         1.315715
 H        -0.641838         3.099553         0.576159
 H        -1.047385         2.306055         2.127730
