19
Iteration:  4720charge 0 multiplicity 1
 O         0.542415         0.608667         0.523468
 C        -0.779373         0.957564         0.589835
 C        -1.755278        -0.079755         0.953571
 C        -2.762217         0.825000         0.115143
 C        -1.539383         1.021930        -0.911940
 O        -1.561219         2.301953        -1.598521
 C        -2.510492         3.156851        -0.818495
 C        -2.784064         2.298542         0.608340
 C        -1.294692         2.309692         1.238246
 H         0.950899         1.311593         0.021159
 H        -1.752115        -1.114276         0.490152
 H        -2.219698        -0.005055         1.926289
 H        -3.786541         0.540564        -0.116576
 H        -1.257618         0.266259        -1.664720
 H        -2.077813         4.228664        -0.688917
 H        -3.634840         3.118486        -1.221882
 H        -3.683610         2.731327         1.228585
 H        -0.686845         3.201908         0.899284
 H        -1.256451         2.085001         2.305226
