19
Iteration:  4880
 O         0.546479         0.670859         0.546779
 C        -0.805857         0.972192         0.499381
 C        -1.869556        -0.080035         0.975716
 C        -2.755408         0.832430         0.025775
 C        -1.579958         1.017601        -0.872232
 O        -1.533768         2.280945        -1.468008
 C        -2.542097         3.060015        -0.762853
 C        -2.712751         2.352763         0.549028
 C        -1.219670         2.319620         1.182563
 H         0.867511         1.349288        -0.049213
 H        -1.651164        -1.106805         0.495501
 H        -2.112242         0.013944         2.079433
 H        -3.749468         0.419256        -0.147560
 H        -1.446380         0.337672        -1.732185
 H        -2.172167         4.084401        -0.668773
 H        -3.524508         2.966677        -1.391385
 H        -3.554124         2.651886         1.195919
 H        -0.663544         3.101245         0.771722
 H        -1.186220         2.074742         2.296452
