19
Iteration:  4815
 O         0.585605         0.537876         0.664088
 C        -0.700840         0.976680         0.496079
 C        -1.854329         0.006210         0.939937
 C        -2.792833         0.869009         0.025901
 C        -1.509712         1.125845        -0.871173
 O        -1.721922         2.317448        -1.655619
 C        -2.587222         3.028526        -0.712735
 C        -2.683268         2.296396         0.556468
 C        -1.187263         2.284443         1.169121
 H         1.309704         1.200947         0.555908
 H        -1.697946        -0.989468         0.464489
 H        -2.210406         0.069223         1.973796
 H        -3.712425         0.426145        -0.263127
 H        -1.332067         0.227221        -1.448024
 H        -2.288609         4.047265        -0.591855
 H        -3.552653         3.091215        -1.229888
 H        -3.439040         2.776044         1.173916
 H        -0.683955         3.171960         0.955166
 H        -1.243036         2.062394         2.301350
