19
Iteration:  2923
 O         0.649754         0.690507         0.470242
 C        -0.797464         0.961809         0.444523
 C        -1.846899        -0.028420         0.929018
 C        -2.696050         0.846938         0.009916
 C        -1.580817         1.012093        -0.903861
 O        -1.617617         2.288913        -1.446332
 C        -2.640024         3.027686        -0.757630
 C        -2.734565         2.329079         0.617986
 C        -1.231630         2.260785         1.203344
 H         0.943245         1.250642         1.224465
 H        -1.756924        -1.012722         0.486793
 H        -2.068343         0.000764         2.059980
 H        -3.665050         0.450583        -0.244610
 H        -1.275134         0.184786        -1.591390
 H        -2.261404         4.129162        -0.602929
 H        -3.473759         3.214271        -1.467255
 H        -3.517416         2.663020         1.250129
 H        -0.590963         3.223227         0.935632
 H        -1.332621         2.120211         2.314357
