19
Iteration:     1
 O         0.584487         0.672039         0.520591
 C        -0.773618         0.969854         0.503659
 C        -1.881188        -0.045892         0.928156
 C        -2.763467         0.827452         0.013556
 C        -1.518641         1.060950        -0.874877
 O        -1.592074         2.324935        -1.503174
 C        -2.566856         3.077446        -0.759532
 C        -2.694687         2.293748         0.550835
 C        -1.271303         2.260796         1.187400
 H         0.913586         0.779774         1.419523
 H        -1.711628        -1.041148         0.510539
 H        -2.132812        -0.116955         1.989794
 H        -3.713839         0.486475        -0.393251
 H        -1.239071         0.289580        -1.592347
 H        -2.197678         4.098884        -0.618964
 H        -3.514824         3.119694        -1.316692
 H        -3.503867         2.622064         1.203949
 H        -0.670966         3.133831         0.917328
 H        -1.284164         2.163351         2.278052
