19
Iteration:  2535charge 0 multiplicity 1
 O         0.587807         0.605004         0.716213
 C        -0.742145         0.978944         0.454492
 C        -1.847285        -0.007515         0.967695
 C        -2.716655         0.821495         0.072091
 C        -1.500922         1.056574        -0.947137
 O        -1.671417         2.317278        -1.531075
 C        -2.755346         3.014175        -0.749511
 C        -2.671518         2.305110         0.540661
 C        -1.158545         2.331177         1.088765
 H         1.278500         1.200150         0.330611
 H        -1.784275        -0.957627         0.441607
 H        -2.076630        -0.077048         1.992267
 H        -3.719460         0.495169        -0.186250
 H        -1.088814         0.338183        -1.736778
 H        -2.422866         4.021038        -0.663653
 H        -3.765199         2.909430        -1.289896
 H        -3.407430         2.694272         1.306910
 H        -0.498403         3.107857         0.789850
 H        -1.285576         2.327158         2.206402
