19
Iteration:  4028
 O         0.624989         0.542931         0.705460
 C        -0.723334         0.944536         0.493577
 C        -1.767543        -0.022975         0.939686
 C        -2.814662         0.862022         0.020579
 C        -1.566831         1.041048        -0.876885
 O        -1.625264         2.304732        -1.548551
 C        -2.737080         3.110440        -0.779797
 C        -2.733091         2.340855         0.536976
 C        -1.148952         2.287131         1.148835
 H         1.105701         1.274242         0.218896
 H        -1.379530        -0.947945         0.554446
 H        -2.156760        -0.199885         1.951272
 H        -3.782609         0.561538        -0.356670
 H        -1.260254         0.273903        -1.579054
 H        -2.441345         4.150984        -0.707801
 H        -3.762256         3.009995        -1.252330
 H        -3.506984         2.684611         1.192832
 H        -0.592592         3.275534         0.763781
 H        -1.135717         2.408174         2.187496
