19
Iteration:  1880charge 0 multiplicity 1
 O         0.646464         0.674496         0.562810
 C        -0.708189         1.017054         0.408664
 C        -1.878172        -0.034313         0.920802
 C        -2.853007         0.784802         0.014957
 C        -1.579906         1.123383        -0.867413
 O        -1.636972         2.230111        -1.524156
 C        -2.578594         3.052851        -0.750823
 C        -2.672334         2.281737         0.554248
 C        -1.221720         2.275601         1.207400
 H         1.123457         1.399366         0.947977
 H        -1.666160        -1.053213         0.762526
 H        -2.137030         0.054870         2.017764
 H        -3.932637         0.536615        -0.024434
 H        -1.237643         0.378406        -1.598032
 H        -2.182408         4.101259        -0.467220
 H        -3.663835         3.025892        -1.224694
 H        -3.419648         2.739685         1.117643
 H        -0.647747         3.109518         1.066997
 H        -1.298608         2.032982         2.193491
