19
Iteration:  3829charge 0 multiplicity 1
 O         0.568709         0.632038         0.614802
 C        -0.776761         0.968315         0.499980
 C        -1.781860        -0.047907         1.005746
 C        -2.748764         0.828181         0.028730
 C        -1.563650         1.024723        -0.893305
 O        -1.632093         2.304362        -1.592475
 C        -2.565807         3.116771        -0.705271
 C        -2.711041         2.303143         0.537235
 C        -1.254544         2.290638         1.152107
 H         1.167305         1.285867         0.262247
 H        -1.360990        -0.966089         0.510560
 H        -2.147701        -0.045152         2.033726
 H        -3.830819         0.476416        -0.303462
 H        -1.405665         0.121125        -1.534146
 H        -2.325307         4.202612        -0.563477
 H        -3.512161         3.173851        -1.337097
 H        -3.560945         2.398728         1.222481
 H        -0.667227         3.130783         0.891568
 H        -1.328423         2.248153         2.231661
