19
Iteration:  2404charge 0 multiplicity 1
 O         0.585727         0.589439         0.571712
 C        -0.700085         1.035147         0.519666
 C        -1.820825        -0.033136         1.002519
 C        -2.704248         0.796275         0.049087
 C        -1.526177         1.108078        -0.830859
 O        -1.672567         2.302555        -1.544073
 C        -2.702130         3.025122        -0.771053
 C        -2.702253         2.288920         0.538259
 C        -1.224671         2.314364         1.098904
 H         1.319340         1.269625         0.481226
 H        -1.630843        -1.093141         0.621459
 H        -2.095497         0.000957         2.068899
 H        -3.611276         0.503959        -0.421260
 H        -1.525082         0.299843        -1.614902
 H        -2.330215         3.998772        -0.630524
 H        -3.607601         3.054372        -1.317852
 H        -3.429011         2.791578         1.224932
 H        -0.627622         3.176653         0.912215
 H        -1.324375         2.121938         2.228383
