19
Iteration:   390charge 0 multiplicity 1
 O         0.623660         0.594004         0.741074
 C        -0.719451         0.906679         0.436629
 C        -1.812861         0.001793         1.018362
 C        -2.757402         0.846598         0.032279
 C        -1.556779         1.038191        -0.915763
 O        -1.579368         2.349494        -1.548631
 C        -2.716278         3.081413        -0.806607
 C        -2.756317         2.291485         0.554080
 C        -1.235818         2.298176         1.110744
 H         1.206658         0.996087         0.092391
 H        -1.691407        -1.064796         0.648391
 H        -1.904679         0.071655         2.065163
 H        -3.654672         0.428994        -0.328288
 H        -1.507874         0.253695        -1.605626
 H        -2.347983         4.188231        -0.774409
 H        -3.742845         3.128954        -1.321953
 H        -3.552238         2.707338         1.187547
 H        -0.487036         3.150112         0.879835
 H        -1.182071         2.286037         2.200248
