19
Iteration:  4569charge 0 multiplicity 1
 O         0.649150         0.649298         0.601653
 C        -0.780769         1.009663         0.552452
 C        -1.892895        -0.026907         0.907084
 C        -2.823502         0.805996         0.103092
 C        -1.549083         1.000759        -0.933391
 O        -1.611446         2.247833        -1.516656
 C        -2.536651         3.119671        -0.783968
 C        -2.713337         2.313366         0.540368
 C        -1.240071         2.288702         1.214022
 H         1.012640         1.245840        -0.088345
 H        -1.537944        -0.981466         0.387633
 H        -2.145928        -0.276768         1.965527
 H        -3.783772         0.232948        -0.201156
 H        -1.370091         0.266836        -1.747037
 H        -2.097917         4.199978        -0.635094
 H        -3.435559         3.297365        -1.334965
 H        -3.566181         2.754130         1.170559
 H        -0.805395         3.343491         0.927095
 H        -1.251043         2.240922         2.279669
