19
Iteration:   547charge 0 multiplicity 1
 O         0.533196         0.526032         0.703704
 C        -0.734561         1.044733         0.550278
 C        -1.810738        -0.049888         0.999889
 C        -2.701243         0.738380         0.021524
 C        -1.511594         1.048759        -0.890148
 O        -1.768708         2.375228        -1.615102
 C        -2.603832         3.102561        -0.844743
 C        -2.672731         2.300159         0.579702
 C        -1.223679         2.362325         1.156714
 H         1.261115         1.021577         0.340761
 H        -1.275360        -0.805612         0.544274
 H        -2.049329        -0.123444         2.094234
 H        -3.661151         0.250047        -0.436404
 H        -1.301332         0.274680        -1.717990
 H        -2.205752         4.143416        -0.646515
 H        -3.686560         3.150953        -1.334426
 H        -3.506064         2.427663         1.115852
 H        -0.616951         3.172352         0.743882
 H        -0.914775         2.319755         2.278112
