19
Iteration:  4045
 O         0.557393         0.558849         0.676667
 C        -0.731813         1.016936         0.506943
 C        -1.844243        -0.052503         0.935677
 C        -2.682239         0.825918         0.107633
 C        -1.526253         1.086310        -0.909369
 O        -1.701556         2.351583        -1.535847
 C        -2.619646         3.027420        -0.801958
 C        -2.631247         2.335139         0.574497
 C        -1.288978         2.309299         1.070905
 H         1.236210         1.178824         0.309446
 H        -1.956074        -1.111170         0.528762
 H        -1.812073        -0.144532         2.033920
 H        -3.622887         0.292158        -0.239650
 H        -1.345412         0.343025        -1.699664
 H        -2.227773         4.081895        -0.725204
 H        -3.580942         2.989780        -1.358935
 H        -3.509882         2.567123         1.263743
 H        -0.651565         3.167211         0.898630
 H        -1.148858         2.303707         2.201037
