19
Iteration:  4612charge 0 multiplicity 1
 O         0.582494         0.564919         0.615061
 C        -0.750952         0.954408         0.522782
 C        -1.877150         0.027076         1.001547
 C        -2.728033         0.733363         0.014942
 C        -1.551373         1.090225        -0.916634
 O        -1.599086         2.371431        -1.481262
 C        -2.672034         3.034723        -0.817864
 C        -2.675267         2.329380         0.533359
 C        -1.231628         2.302615         1.158113
 H         1.121828         1.219328         0.085003
 H        -1.733511        -0.974980         0.511229
 H        -2.330359        -0.049598         1.989862
 H        -3.799123         0.424671        -0.132909
 H        -1.134343         0.351124        -1.593574
 H        -2.305389         4.118771        -0.808691
 H        -3.558864         3.104096        -1.311863
 H        -3.383320         2.691945         1.363290
 H        -0.391512         3.063986         0.868042
 H        -1.198997         2.221602         2.211142
