19
Iteration:  2683
 O         0.594857         0.541003         0.703988
 C        -0.721335         1.007577         0.464778
 C        -1.831918         0.055091         0.922871
 C        -2.727429         0.811596        -0.007125
 C        -1.455543         1.001682        -0.885198
 O        -1.735485         2.295129        -1.564994
 C        -2.732264         3.073133        -0.743744
 C        -2.712911         2.279185         0.608022
 C        -1.147938         2.378155         1.129803
 H         1.254443         1.162008         0.468520
 H        -1.494065        -1.003592         0.602131
 H        -2.317198        -0.025934         2.032070
 H        -3.618972         0.546135        -0.507996
 H        -1.421130         0.216722        -1.553143
 H        -2.398564         4.210649        -0.698392
 H        -3.552308         3.091859        -1.512396
 H        -3.479673         2.409412         1.337377
 H        -0.491921         3.262137         0.830909
 H        -1.097353         2.288075         2.181463
