19
Iteration:  1860
 O         0.553867         0.744348         0.408972
 C        -0.783851         0.919012         0.497122
 C        -1.895401        -0.039149         1.042240
 C        -2.767881         0.868183         0.012421
 C        -1.483453         0.990433        -0.882736
 O        -1.570369         2.311673        -1.512323
 C        -2.577339         3.067494        -0.774878
 C        -2.692983         2.279129         0.592826
 C        -1.253395         2.252980         1.225228
 H         1.032904         1.212795         1.081001
 H        -1.583653        -0.995198         0.573177
 H        -2.082870        -0.162076         2.106662
 H        -3.654007         0.418501        -0.319726
 H        -1.454310         0.089206        -1.519490
 H        -2.219438         4.106734        -0.672328
 H        -3.626499         3.062181        -1.230591
 H        -3.470400         2.605232         1.249339
 H        -0.743811         3.203281         0.798650
 H        -1.295854         2.323960         2.305581
