19
Iteration:  3487charge 0 multiplicity 1
 O         0.643727         0.707672         0.551647
 C        -0.760590         0.911977         0.512095
 C        -1.788829        -0.073753         0.986185
 C        -2.783843         0.794361         0.026936
 C        -1.550729         1.035336        -0.873378
 O        -1.650360         2.267747        -1.557501
 C        -2.601066         3.148261        -0.737500
 C        -2.669837         2.361638         0.570516
 C        -1.320410         2.240539         1.182700
 H         1.081111         1.345762        -0.010544
 H        -1.696502        -1.088979         0.740512
 H        -2.051474        -0.120460         2.075255
 H        -3.722727         0.349520        -0.278685
 H        -1.377852         0.195038        -1.629462
 H        -2.080424         4.168406        -0.625637
 H        -3.547506         3.327060        -1.336611
 H        -3.526392         2.745750         1.231043
 H        -0.718674         3.096443         0.903676
 H        -1.363913         2.168924         2.287406
