19
Iteration:   294charge 0 multiplicity 1
 O         0.656802         0.878833         0.517602
 C        -0.798401         0.986672         0.480216
 C        -1.911847        -0.042874         0.937344
 C        -2.861426         0.836569         0.048473
 C        -1.589630         1.011801        -0.898539
 O        -1.688155         2.139369        -1.623325
 C        -2.358608         3.047677        -0.728690
 C        -2.678521         2.324973         0.590976
 C        -1.277129         2.198823         1.262826
 H         0.919863         1.251339         1.369640
 H        -1.919852        -1.061629         0.396354
 H        -2.010578         0.066857         2.058078
 H        -3.740103         0.393280        -0.398339
 H        -1.358199         0.216153        -1.619642
 H        -1.786009         3.976170        -0.648737
 H        -3.293872         3.250727        -1.182012
 H        -3.451717         2.795172         1.153798
 H        -0.807211         3.185563         1.169124
 H        -1.161196         2.086751         2.345435
