19
Iteration:  1020
 O         0.631073         0.583816         0.660088
 C        -0.760372         0.959938         0.455450
 C        -1.841879         0.014211         0.973344
 C        -2.721498         0.853944        -0.005856
 C        -1.453645         1.046743        -0.858077
 O        -1.628960         2.332615        -1.495665
 C        -2.663255         3.075551        -0.749602
 C        -2.730322         2.314981         0.554368
 C        -1.284988         2.320226         1.134048
 H         0.946961         0.339969        -0.252777
 H        -1.678599        -1.065509         0.667191
 H        -2.201296         0.079024         1.940197
 H        -3.588627         0.629688        -0.639814
 H        -1.187147         0.214575        -1.585605
 H        -2.333312         4.156572        -0.749539
 H        -3.660484         2.827596        -1.275687
 H        -3.507302         2.510881         1.297031
 H        -0.804971         3.288047         0.991466
 H        -1.358904         2.150171         2.214413
