19
Iteration:  4571charge 0 multiplicity 1
 O         0.658257         0.649144         0.600285
 C        -0.783629         1.014057         0.554704
 C        -1.890906        -0.016128         0.906733
 C        -2.821979         0.803418         0.111360
 C        -1.549709         1.014024        -0.939327
 O        -1.605154         2.252517        -1.508203
 C        -2.537519         3.103826        -0.777163
 C        -2.696078         2.309810         0.546520
 C        -1.255859         2.298970         1.191546
 H         1.006230         1.216134        -0.079986
 H        -1.604631        -1.005115         0.425491
 H        -2.231622        -0.298754         1.942194
 H        -3.800268         0.219317        -0.207139
 H        -1.411956         0.274269        -1.819284
 H        -2.025805         4.105837        -0.616238
 H        -3.521113         3.275756        -1.359538
 H        -3.535591         2.747776         1.136762
 H        -0.833083         3.290029         0.922104
 H        -1.275272         2.226791         2.330047
