19
Iteration:  4604
 O         0.553181         0.616343         0.616290
 C        -0.777199         0.952866         0.519006
 C        -1.860136         0.023330         1.004384
 C        -2.778214         0.775088         0.051511
 C        -1.469914         1.071486        -0.937638
 O        -1.567299         2.325962        -1.489309
 C        -2.699109         3.117484        -0.804342
 C        -2.689549         2.327450         0.558370
 C        -1.196688         2.233752         1.172128
 H         0.950011         1.220874        -0.053343
 H        -1.661836        -1.035983         0.614218
 H        -2.266641         0.065485         2.073207
 H        -3.775919         0.226281        -0.409551
 H        -1.270188         0.263722        -1.788772
 H        -2.217499         4.115079        -0.865564
 H        -3.682853         3.081754        -1.418192
 H        -3.504526         2.645376         1.262113
 H        -0.579458         3.117774         0.770906
 H        -0.930169         2.022551         2.304287
