19
Iteration:  3394
 O         0.592800         0.639534         0.615519
 C        -0.720513         1.008118         0.400419
 C        -1.845441        -0.069531         0.934586
 C        -2.710215         0.811919         0.002211
 C        -1.547248         1.028665        -0.868028
 O        -1.704635         2.274929        -1.497785
 C        -2.632765         3.028293        -0.702149
 C        -2.684448         2.323006         0.600241
 C        -1.208667         2.348635         1.151225
 H         1.134067         1.483736         0.521434
 H        -1.698201        -1.145331         0.502031
 H        -2.128992        -0.308366         1.951920
 H        -3.700074         0.608517        -0.509920
 H        -1.446667         0.348594        -1.692108
 H        -2.251475         4.036500        -0.575897
 H        -3.594506         3.129644        -1.190181
 H        -3.480930         2.703712         1.186076
 H        -0.699397         3.339084         0.738968
 H        -0.969760         2.235107         2.238944
