19
Iteration:  2385charge 0 multiplicity 1
 O         0.638787         0.551666         0.540535
 C        -0.742913         0.968631         0.527495
 C        -1.809649         0.050367         0.997623
 C        -2.781513         0.816235         0.059534
 C        -1.526604         1.002967        -0.925189
 O        -1.606560         2.391440        -1.488992
 C        -2.707359         3.010613        -0.840008
 C        -2.740358         2.321809         0.593890
 C        -1.213336         2.317907         1.172606
 H         1.171027         1.382181         0.724243
 H        -1.811054        -1.116835         0.594181
 H        -1.825006         0.021209         2.105869
 H        -3.772922         0.382361        -0.194312
 H        -1.016012         0.344620        -1.643395
 H        -2.675276         4.136343        -1.046032
 H        -3.795095         2.904353        -1.299734
 H        -3.511915         2.380685         1.266787
 H        -0.777075         3.093163         0.600810
 H        -1.054624         2.336169         2.309874
