19
Iteration:  1738charge 0 multiplicity 1
 O         0.559171         0.706452         0.508140
 C        -0.774658         0.930065         0.495483
 C        -1.812343        -0.083124         0.967985
 C        -2.719080         0.801030         0.062813
 C        -1.534973         0.990256        -0.895264
 O        -1.616361         2.350855        -1.528773
 C        -2.647336         3.062801        -0.804128
 C        -2.647503         2.343192         0.574695
 C        -1.245535         2.299250         1.171556
 H         0.891849         0.862137         1.394108
 H        -1.853743        -1.080530         0.641430
 H        -1.995315         0.029597         2.079657
 H        -3.749297         0.548719        -0.238575
 H        -1.362449         0.280359        -1.724623
 H        -2.296885         4.093073        -0.648543
 H        -3.545935         3.068101        -1.266410
 H        -3.328323         2.555920         1.339682
 H        -0.595289         3.249862         0.899808
 H        -1.485080         2.172793         2.240059
