19
Iteration:  2047
 O         0.650711         0.636831         0.723071
 C        -0.703104         0.984283         0.476021
 C        -1.833254         0.027046         0.885480
 C        -2.769875         0.777534         0.054967
 C        -1.567328         1.086885        -0.915062
 O        -1.791311         2.232107        -1.621956
 C        -2.609468         3.068305        -0.678572
 C        -2.612431         2.330115         0.545225
 C        -1.237930         2.282175         1.169633
 H         1.334000         1.282114         0.636889
 H        -1.474949        -0.965610         0.343442
 H        -2.053581        -0.225033         1.882042
 H        -3.714059         0.412119        -0.304493
 H        -1.370919         0.280454        -1.674078
 H        -2.246199         4.153535        -0.565490
 H        -3.598885         3.273633        -1.125068
 H        -3.536293         2.850221         1.025539
 H        -0.548831         3.039450         0.796709
 H        -1.359178         2.132573         2.190969
