19
Iteration:    45charge 0 multiplicity 1
 O         0.512513         0.533709         0.729673
 C        -0.742122         0.974889         0.538950
 C        -1.810075        -0.088036         0.858803
 C        -2.671755         0.812327        -0.013835
 C        -1.507638         1.100379        -0.881775
 O        -1.753563         2.394635        -1.576347
 C        -2.722380         3.110065        -0.717189
 C        -2.600736         2.288071         0.517311
 C        -1.134888         2.359688         1.074501
 H         0.701267         0.548708         1.665301
 H        -1.518980        -1.030246         0.447420
 H        -2.215978        -0.158542         1.869335
 H        -3.624716         0.401806        -0.364530
 H        -1.157338         0.369283        -1.626687
 H        -2.489548         4.172650        -0.720696
 H        -3.685364         2.943253        -1.018408
 H        -3.335522         2.483915         1.308961
 H        -0.402289         3.005280         0.600334
 H        -0.959436         2.541992         2.134268
