19
Iteration:  4378
 O         0.583649         0.660666         0.609962
 C        -0.787037         0.923556         0.487090
 C        -1.822822        -0.079662         0.978305
 C        -2.810771         0.865065         0.094699
 C        -1.483687         1.077454        -0.976285
 O        -1.668577         2.289799        -1.562802
 C        -2.596209         3.046702        -0.743620
 C        -2.633978         2.341538         0.507319
 C        -1.276420         2.290056         1.214582
 H         1.038566         1.492354         0.675489
 H        -1.669938        -1.102813         0.485575
 H        -2.011143        -0.016323         2.084845
 H        -3.828979         0.468968        -0.189471
 H        -1.198673         0.241635        -1.800787
 H        -2.368521         4.219526        -0.743758
 H        -3.513630         3.054093        -1.275188
 H        -3.384724         2.575977         1.300189
 H        -0.370010         2.919250         0.859295
 H        -1.221638         2.178589         2.375975
