19
Iteration:  4673
 O         0.632511         0.640524         0.695782
 C        -0.772926         0.918940         0.454230
 C        -1.877161        -0.040451         1.004637
 C        -2.718793         0.823080        -0.021967
 C        -1.580443         1.045809        -0.932336
 O        -1.659334         2.293338        -1.674531
 C        -2.614625         3.141454        -0.724818
 C        -2.652521         2.330090         0.622787
 C        -1.225719         2.233974         1.191300
 H         1.103596         1.508997         0.518255
 H        -1.762053        -1.015487         0.547247
 H        -2.078112        -0.127881         2.092757
 H        -3.684962         0.586359        -0.374614
 H        -1.551335         0.274880        -1.666251
 H        -2.105631         4.032808        -0.539745
 H        -3.637910         3.283975        -1.204089
 H        -3.431970         2.640928         1.238161
 H        -0.648522         3.031222         0.832207
 H        -1.281566         2.219766         2.361263
