19
Iteration:  4155
 O         0.623722         0.578729         0.628293
 C        -0.767909         0.994418         0.592689
 C        -1.847332         0.000996         0.941041
 C        -2.736730         0.807001         0.018116
 C        -1.513791         1.102219        -0.896504
 O        -1.671146         2.301099        -1.538929
 C        -2.604317         3.099813        -0.818579
 C        -2.680833         2.279453         0.572259
 C        -1.246257         2.264930         1.150438
 H         0.998714         1.282149         0.037836
 H        -1.654013        -1.062846         0.738972
 H        -2.073366         0.177770         2.031083
 H        -3.716857         0.358560        -0.278007
 H        -1.350788         0.383154        -1.653381
 H        -2.508783         4.150376        -0.462885
 H        -3.715147         3.070966        -1.327402
 H        -3.560707         2.540953         1.162377
 H        -0.727520         2.982322         0.601399
 H        -0.979452         2.266717         2.283593
