19
Iteration:  2258
 O         0.577062         0.678352         0.538775
 C        -0.767382         0.951365         0.476442
 C        -1.842941        -0.016809         1.001017
 C        -2.731612         0.856505         0.064862
 C        -1.503010         0.980335        -0.819029
 O        -1.596123         2.329495        -1.463475
 C        -2.656499         3.022532        -0.785964
 C        -2.693969         2.273454         0.521220
 C        -1.244688         2.329542         1.086057
 H         0.981827         1.435418         0.134070
 H        -1.787867        -0.987596         0.548282
 H        -2.017755        -0.084088         2.147683
 H        -3.722263         0.382247        -0.199237
 H        -1.365851         0.193297        -1.566103
 H        -2.341597         4.066166        -0.510298
 H        -3.548798         3.036097        -1.313903
 H        -3.579782         2.495316         1.304993
 H        -0.533598         3.225470         0.855382
 H        -1.310858         2.165823         2.133001
