19
Iteration:  3016charge 0 multiplicity 1
 O         0.582938         0.706169         0.592775
 C        -0.755152         0.967331         0.472547
 C        -1.847016        -0.100668         0.974681
 C        -2.734391         0.790847         0.034107
 C        -1.544158         1.028445        -0.860043
 O        -1.685229         2.355876        -1.497859
 C        -2.611932         3.104507        -0.742154
 C        -2.614276         2.314307         0.509028
 C        -1.283580         2.254065         1.159347
 H         1.053728         0.870123        -0.224686
 H        -1.506384        -1.071220         0.537197
 H        -1.928874        -0.127406         2.019695
 H        -3.727209         0.493952        -0.330799
 H        -1.138906         0.349022        -1.582117
 H        -2.313383         4.124588        -0.598174
 H        -3.683264         3.185877        -1.137251
 H        -3.353156         2.503386         1.326837
 H        -0.646453         3.070370         0.923867
 H        -1.252492         2.123053         2.253250
