19
Iteration:     3charge 0 multiplicity 1
 O         0.601594         0.663356         0.532521
 C        -0.764710         0.972555         0.496079
 C        -1.868346        -0.047411         0.920186
 C        -2.759302         0.828752         0.001868
 C        -1.525121         1.066905        -0.868975
 O        -1.595377         2.334590        -1.507250
 C        -2.563188         3.071929        -0.748460
 C        -2.698128         2.293657         0.556753
 C        -1.257610         2.254730         1.180232
 H         0.846017         0.788781         1.466478
 H        -1.795121        -1.021316         0.547728
 H        -2.181892        -0.106662         2.014782
 H        -3.761756         0.486157        -0.340718
 H        -1.313459         0.221945        -1.584073
 H        -2.246274         4.140875        -0.677663
 H        -3.564570         3.128176        -1.325268
 H        -3.540039         2.646757         1.181836
 H        -0.758547         3.108750         0.861266
 H        -1.356191         2.165247         2.266073
