19
Iteration:  4629charge 0 multiplicity 1
 O         0.581205         0.493125         0.621496
 C        -0.727805         0.995746         0.516708
 C        -1.835955        -0.072539         0.943068
 C        -2.809809         0.907340         0.059020
 C        -1.482734         1.046574        -0.867524
 O        -1.609260         2.339196        -1.551958
 C        -2.656721         3.071305        -0.731153
 C        -2.674648         2.284382         0.539718
 C        -1.252262         2.370294         1.135756
 H         1.178356         1.287175         0.455745
 H        -1.595392        -1.033356         0.529795
 H        -1.946400         0.031268         2.034253
 H        -3.630056         0.609925        -0.562868
 H        -1.394171         0.226614        -1.598071
 H        -2.438279         4.119223        -0.712142
 H        -3.725236         2.874252        -1.296512
 H        -3.497621         2.570903         1.111242
 H        -0.880139         3.249147         0.728376
 H        -1.156826         2.322352         2.327907
