19
Iteration:  2109charge 0 multiplicity 1
 O         0.625835         0.607834         0.504803
 C        -0.730697         1.016018         0.425348
 C        -1.863057         0.026804         1.034639
 C        -2.768391         0.785008         0.005572
 C        -1.541432         1.036766        -0.901826
 O        -1.538068         2.293014        -1.393377
 C        -2.709327         3.010284        -0.802271
 C        -2.762833         2.328000         0.576903
 C        -1.216770         2.337581         1.186710
 H         1.088814         1.362172         0.151108
 H        -1.613648        -0.961477         0.647223
 H        -2.209196        -0.071865         2.066642
 H        -3.783518         0.511430        -0.256871
 H        -1.355957         0.163544        -1.575591
 H        -2.436522         4.072567        -0.721133
 H        -3.565535         2.751969        -1.487618
 H        -3.629719         2.497363         1.122422
 H        -0.617561         3.218554         0.904843
 H        -0.983349         2.371951         2.342083
