19
Iteration:  3839
 O         0.602584         0.601441         0.637555
 C        -0.756243         1.027750         0.477611
 C        -1.837615         0.014489         0.902598
 C        -2.762814         0.798816         0.020931
 C        -1.499969         1.028446        -0.882631
 O        -1.658408         2.272001        -1.489409
 C        -2.656710         3.116053        -0.731115
 C        -2.616770         2.293558         0.533779
 C        -1.286938         2.286021         1.124687
 H         1.122420         1.305835         0.277433
 H        -1.723127        -1.090861         0.667059
 H        -1.973870        -0.085870         1.993734
 H        -3.846961         0.425815        -0.186649
 H        -1.281768         0.183830        -1.601536
 H        -2.061900         4.078659        -0.693208
 H        -3.711818         3.106615        -1.241082
 H        -3.318944         2.782842         1.259637
 H        -0.720167         3.171823         0.928273
 H        -1.401435         2.178526         2.150499
