19
Iteration:   691charge 0 multiplicity 1
 O         0.628544         0.488690         0.835413
 C        -0.667948         0.981176         0.561888
 C        -1.852235        -0.047154         0.825865
 C        -2.746404         0.819089         0.001871
 C        -1.581229         1.097669        -0.938754
 O        -1.703398         2.325335        -1.591329
 C        -2.676230         3.020769        -0.742856
 C        -2.657951         2.334509         0.631078
 C        -1.202514         2.427137         1.026924
 H         1.256888         1.194294         0.594569
 H        -1.762076        -1.025378         0.247385
 H        -2.067725        -0.318368         1.848270
 H        -3.738032         0.372806        -0.251767
 H        -1.514838         0.364815        -1.729314
 H        -2.517285         4.087990        -0.765509
 H        -3.724198         2.842964        -1.089661
 H        -3.187821         2.715919         1.388752
 H        -0.579581         3.234034         0.585165
 H        -1.168678         2.720261         2.154871
