19
Iteration:   677charge 0 multiplicity 1
 O         0.577397         0.444789         0.858417
 C        -0.715636         1.027308         0.522958
 C        -1.764509         0.047587         0.888868
 C        -2.739798         0.875489         0.014178
 C        -1.561386         1.045448        -0.974513
 O        -1.743425         2.353636        -1.570910
 C        -2.793614         3.040450        -0.746054
 C        -2.625304         2.287993         0.531159
 C        -1.122664         2.359927         1.085656
 H         1.314865         0.973863         0.455688
 H        -1.421768        -0.849180         0.477754
 H        -2.003746        -0.255065         1.921455
 H        -3.762722         0.652027        -0.476596
 H        -1.123184         0.201481        -1.614157
 H        -2.473851         4.111678        -0.700502
 H        -3.693506         2.973187        -1.239403
 H        -3.484472         2.444629         1.197049
 H        -0.686324         3.237025         0.592931
 H        -0.955435         2.339513         2.200769
