19
Iteration:  1556
 O         0.588306         0.777119         0.409881
 C        -0.837655         0.990018         0.560406
 C        -1.859017        -0.081948         0.959441
 C        -2.814828         0.808208         0.022714
 C        -1.589685         1.046335        -0.835019
 O        -1.518736         2.246335        -1.550094
 C        -2.510970         3.068284        -0.787865
 C        -2.697657         2.304404         0.575569
 C        -1.264070         2.274037         1.242152
 H         0.865975         1.041102         1.349393
 H        -1.718524        -1.135150         0.472932
 H        -2.281487        -0.015898         1.996863
 H        -3.749739         0.423882        -0.279209
 H        -1.218598         0.226515        -1.475981
 H        -2.191199         4.077540        -0.729041
 H        -3.401932         2.873708        -1.271127
 H        -3.510783         2.725029         1.224580
 H        -0.591401         3.092357         0.952205
 H        -1.241578         2.223416         2.416804
