19
Iteration:  1056charge 0 multiplicity 1
 O         0.557472         0.852801         0.580845
 C        -0.813149         0.989456         0.533629
 C        -1.853791        -0.140772         0.980456
 C        -2.820701         0.780312         0.073008
 C        -1.538020         1.086961        -0.909606
 O        -1.666895         2.249389        -1.597169
 C        -2.369127         3.104665        -0.775416
 C        -2.632966         2.296444         0.588835
 C        -1.349926         2.228527         1.220435
 H         0.951401         0.179178        -0.007016
 H        -1.516840        -1.132608         0.675592
 H        -2.097130        -0.191325         2.041136
 H        -3.731528         0.572588        -0.491549
 H        -1.274873         0.263192        -1.598922
 H        -1.992704         4.145020        -0.700855
 H        -3.412429         3.287189        -1.336051
 H        -3.552396         2.820024         1.012144
 H        -0.580000         3.108695         1.014140
 H        -1.329518         1.990314         2.392748
