19
Iteration:  4826charge 0 multiplicity 1
 O         0.592314         0.544886         0.635783
 C        -0.786528         1.012724         0.510965
 C        -1.890241         0.025065         0.942699
 C        -2.734537         0.827668         0.059680
 C        -1.505951         0.996542        -0.879863
 O        -1.686629         2.329600        -1.650286
 C        -2.624392         3.129747        -0.798309
 C        -2.612165         2.307141         0.573320
 C        -1.246112         2.252754         1.209125
 H         0.992400         1.380881         0.386532
 H        -1.517521        -1.006091         0.718923
 H        -1.951959        -0.102869         2.036671
 H        -3.688931         0.658152        -0.366490
 H        -1.289159         0.299308        -1.689252
 H        -2.188549         4.088946        -0.599234
 H        -3.671855         3.148198        -1.152982
 H        -3.337262         2.467230         1.367744
 H        -0.695047         3.115590         1.021321
 H        -1.162842         2.152092         2.366076
