19
Iteration:  2200
 O         0.644747         0.543893         0.659741
 C        -0.767902         1.022443         0.519780
 C        -1.780558        -0.085889         0.961614
 C        -2.728142         0.746642        -0.012076
 C        -1.557137         1.065331        -0.883376
 O        -1.777615         2.275512        -1.603941
 C        -2.632304         3.093919        -0.773342
 C        -2.621643         2.400639         0.576000
 C        -1.277986         2.371149         1.158600
 H         1.204457         1.350158         0.476256
 H        -1.283076        -1.070043         0.679881
 H        -2.131905        -0.129909         1.960061
 H        -3.755388         0.385007        -0.189816
 H        -1.218319         0.395028        -1.668626
 H        -2.158587         4.138264        -0.791786
 H        -3.643868         2.973744        -1.079256
 H        -3.453262         2.694359         1.270465
 H        -0.605617         3.246478         0.846825
 H        -1.261380         2.346804         2.308455
