19
Iteration:  4038
 O         0.596102         0.550404         0.689312
 C        -0.764143         0.973968         0.522421
 C        -1.799330        -0.021932         0.946775
 C        -2.709889         0.828946         0.063890
 C        -1.526730         1.052676        -0.937792
 O        -1.694180         2.341932        -1.520336
 C        -2.661235         3.062284        -0.801355
 C        -2.696654         2.342665         0.554397
 C        -1.258310         2.309718         1.149228
 H         1.283623         1.157809         0.270164
 H        -1.777073        -0.931627         0.361390
 H        -1.841453        -0.162138         2.058695
 H        -3.678853         0.427285        -0.277857
 H        -1.311081         0.273061        -1.648636
 H        -2.376499         4.114726        -0.798575
 H        -3.560984         3.010513        -1.387539
 H        -3.299485         2.765819         1.313766
 H        -0.532017         3.062565         0.529671
 H        -1.162185         2.239585         2.186344
