19
Iteration:   364
 O         0.526710         0.434479         0.607986
 C        -0.747718         0.994695         0.537268
 C        -1.885380         0.064754         1.050254
 C        -2.693985         0.774500        -0.005664
 C        -1.465394         1.135545        -0.882377
 O        -1.609803         2.401356        -1.473487
 C        -2.747057         2.967607        -0.794475
 C        -2.659641         2.233810         0.489862
 C        -1.172343         2.425205         1.083511
 H         1.178425         1.146164         0.609421
 H        -1.589192        -0.854861         0.645438
 H        -2.121258         0.113427         2.138250
 H        -3.732449         0.447582        -0.315637
 H        -1.098771         0.409506        -1.683041
 H        -2.658779         4.035295        -0.862013
 H        -3.752596         2.689238        -1.225280
 H        -3.514681         2.569958         1.161447
 H        -0.521173         3.163164         0.740051
 H        -1.216907         2.565493         2.174670
