19
Iteration:  1806charge 0 multiplicity 1
 O         0.595812         0.683022         0.548608
 C        -0.761849         1.006295         0.487732
 C        -1.802887         0.019038         0.942825
 C        -2.756659         0.848403         0.033878
 C        -1.578724         1.051823        -0.896648
 O        -1.654301         2.340970        -1.602541
 C        -2.620556         3.023455        -0.768159
 C        -2.705381         2.276770         0.610145
 C        -1.206618         2.243151         1.185998
 H         0.921023         0.199755         1.334489
 H        -1.715585        -1.083779         0.755137
 H        -1.933250         0.161505         2.018156
 H        -3.629085         0.406863        -0.335380
 H        -1.110697         0.165317        -1.358210
 H        -2.319851         4.042047        -0.681253
 H        -3.563293         2.943902        -1.194701
 H        -3.491106         2.552985         1.308334
 H        -0.532768         3.186714         0.807234
 H        -1.314583         2.238482         2.321700
