19
Iteration:   737
 O         0.634841         0.666835         0.492321
 C        -0.767729         1.010008         0.440487
 C        -1.897846        -0.010941         0.979481
 C        -2.759079         0.814809         0.077633
 C        -1.587015         1.007839        -0.912733
 O        -1.556957         2.264931        -1.521704
 C        -2.495178         3.047227        -0.767411
 C        -2.717631         2.293919         0.566692
 C        -1.351585         2.266070         1.248423
 H         1.118546         1.543384         0.523937
 H        -1.682512        -1.166623         0.909188
 H        -2.282648         0.263366         1.968863
 H        -3.724993         0.528056        -0.216904
 H        -1.220884         0.340931        -1.668219
 H        -2.109570         4.030126        -0.509068
 H        -3.523954         3.241748        -1.267315
 H        -3.681624         2.631319         0.984231
 H        -0.822741         3.248743         1.080015
 H        -1.214892         2.093347         2.342549
