19
Iteration:   879
 O         0.577623         0.813516         0.541284
 C        -0.793307         0.947904         0.526111
 C        -1.859977        -0.033649         0.967351
 C        -2.821473         0.821240         0.054345
 C        -1.563712         0.967488        -0.859429
 O        -1.555102         2.363219        -1.491422
 C        -2.631139         3.080202        -0.855630
 C        -2.639798         2.315644         0.527416
 C        -1.242827         2.181879         1.174936
 H         0.918407        -0.068111         0.862968
 H        -1.626217        -1.128355         0.642948
 H        -1.985902        -0.099662         2.040684
 H        -3.771288         0.617119        -0.418342
 H        -1.216403         0.285767        -1.654764
 H        -2.290360         4.104320        -0.757348
 H        -3.583406         3.063363        -1.374321
 H        -3.315695         2.659692         1.330940
 H        -0.430807         3.009533         1.021862
 H        -1.248746         2.188508         2.356273
