19
Iteration:   684
 O         0.611952         0.450358         0.857275
 C        -0.672641         1.006745         0.560014
 C        -1.811041         0.025266         0.876850
 C        -2.784633         0.862809        -0.019570
 C        -1.591855         1.032750        -0.950278
 O        -1.707447         2.335979        -1.593438
 C        -2.752607         3.026114        -0.738275
 C        -2.600239         2.294566         0.583640
 C        -1.171177         2.413073         1.064152
 H         1.305682         1.084599         0.501491
 H        -1.482726        -0.795420         0.111821
 H        -1.978287        -0.303173         1.925550
 H        -3.682477         0.524496        -0.461749
 H        -1.275764         0.397365        -1.788797
 H        -2.482833         4.088720        -0.656312
 H        -3.866639         2.878556        -1.108004
 H        -3.415364         2.687690         1.395179
 H        -0.755349         3.283922         0.521326
 H        -1.045722         2.446920         2.103376
