19
Iteration:  4266
 O         0.604435         0.663085         0.564543
 C        -0.840317         0.968742         0.537358
 C        -1.748582        -0.053365         0.958481
 C        -2.809117         0.812151         0.043900
 C        -1.571773         1.024249        -0.859643
 O        -1.638461         2.279847        -1.553342
 C        -2.573221         3.113178        -0.812090
 C        -2.687429         2.336106         0.550370
 C        -1.258549         2.243635         1.223531
 H         1.066141         1.494439         0.275732
 H        -1.809418        -1.032702         0.506961
 H        -2.083055        -0.046500         2.016903
 H        -3.710956         0.316789        -0.299717
 H        -1.106491         0.346964        -1.567056
 H        -2.121576         4.060950        -0.523775
 H        -3.388345         3.396739        -1.393604
 H        -3.368361         2.711642         1.217448
 H        -0.666705         3.000257         0.796915
 H        -1.217693         2.140765         2.362038
