19
Iteration:  2998
 O         0.602973         0.633762         0.652034
 C        -0.740124         0.938122         0.533268
 C        -1.775994        -0.067727         0.944129
 C        -2.707605         0.836810         0.061233
 C        -1.511526         1.147027        -0.956555
 O        -1.678647         2.355558        -1.615192
 C        -2.690247         3.081253        -0.757812
 C        -2.739048         2.289438         0.642023
 C        -1.195579         2.245006         1.219343
 H         1.012498         0.740760        -0.223490
 H        -1.810317        -1.032872         0.526753
 H        -2.091467        -0.087284         2.017097
 H        -3.590641         0.378060        -0.364526
 H        -1.455955         0.257662        -1.742219
 H        -2.330262         4.122129        -0.699045
 H        -3.607104         3.157685        -1.309909
 H        -3.706594         2.543645         1.177243
 H        -0.596114         3.085925         0.763141
 H        -1.104984         2.186583         2.318823
