19
Iteration:  3258charge 0 multiplicity 1
 O         0.714828         0.514128         0.594914
 C        -0.721688         0.982783         0.533095
 C        -1.825232        -0.005629         0.953257
 C        -2.751244         0.835173         0.070008
 C        -1.477425         1.068191        -0.871629
 O        -1.753417         2.328338        -1.552368
 C        -2.701055         3.108449        -0.721645
 C        -2.684741         2.310462         0.498138
 C        -1.282651         2.306471         1.134665
 H         1.221037         1.341205         0.433483
 H        -1.648892        -0.861802         0.358934
 H        -1.933481        -0.405512         1.945677
 H        -3.697353         0.492409        -0.312213
 H        -1.244000         0.323403        -1.687842
 H        -2.394410         4.118956        -0.691381
 H        -3.698319         3.075461        -1.143064
 H        -3.451480         2.576742         1.297120
 H        -0.582448         3.103593         0.934214
 H        -1.440335         2.298665         2.307735
