19
Iteration:  3804
 O         0.608498         0.685469         0.570513
 C        -0.776596         0.989458         0.471925
 C        -1.871140        -0.038093         0.939613
 C        -2.838076         0.757796         0.091278
 C        -1.464643         1.076355        -0.883260
 O        -1.652578         2.265362        -1.561017
 C        -2.529456         3.095926        -0.763904
 C        -2.667435         2.285329         0.553049
 C        -1.292673         2.257663         1.217626
 H         1.153948         1.368375         0.207097
 H        -1.673583        -1.048721         0.520263
 H        -2.088654         0.061572         2.007944
 H        -3.825201         0.369726        -0.009795
 H        -1.253129         0.182268        -1.477897
 H        -2.098627         4.143580        -0.641478
 H        -3.501238         3.313069        -1.387816
 H        -3.460622         2.711212         1.247794
 H        -0.710774         3.167151         0.904388
 H        -1.372527         2.237158         2.234055
