19
Iteration:  3855
 O         0.637651         0.589540         0.657806
 C        -0.731575         0.945249         0.455506
 C        -1.864246        -0.023335         0.952648
 C        -2.770572         0.878330         0.045977
 C        -1.527444         1.067890        -0.893298
 O        -1.682738         2.338684        -1.534369
 C        -2.646669         3.009211        -0.799741
 C        -2.755811         2.346344         0.580606
 C        -1.154610         2.282844         1.170500
 H         1.282957         1.253045         0.391444
 H        -1.732371        -0.987106         0.495728
 H        -2.181465        -0.095755         2.018791
 H        -3.628910         0.491392        -0.466272
 H        -1.195516         0.306444        -1.620763
 H        -2.483718         4.048761        -0.712797
 H        -3.529299         2.916145        -1.395552
 H        -3.620111         2.528927         1.197516
 H        -0.576530         3.209916         0.882786
 H        -1.019465         2.214151         2.365035
