19
Iteration:  1076
 O         0.610896         0.957159         0.626409
 C        -0.811253         0.927030         0.492345
 C        -1.848552        -0.031673         0.890907
 C        -2.817524         0.840197         0.071208
 C        -1.624966         0.911466        -0.920960
 O        -1.622408         2.225544        -1.579149
 C        -2.425317         3.123846        -0.730326
 C        -2.703669         2.319409         0.562849
 C        -1.259634         2.199331         1.187085
 H         1.043973         0.136248         0.456067
 H        -2.028520        -0.999310         0.299869
 H        -2.108365        -0.190922         1.872106
 H        -3.735729         0.373770        -0.301080
 H        -1.331530        -0.064484        -1.389483
 H        -1.786781         4.012442        -0.430199
 H        -3.325701         3.632302        -1.310431
 H        -3.541610         2.546452         1.303094
 H        -0.570973         3.091216         1.104697
 H        -1.355638         1.893685         2.272978
