19
Iteration:  1899charge 0 multiplicity 1
 O         0.616138         0.620760         0.648804
 C        -0.748407         0.954619         0.534350
 C        -1.788364        -0.024582         0.945135
 C        -2.686408         0.840447         0.093634
 C        -1.576448         0.981695        -0.916273
 O        -1.725973         2.353800        -1.632025
 C        -2.606787         3.116502        -0.772915
 C        -2.694801         2.317946         0.583235
 C        -1.274892         2.250299         1.154110
 H         1.107078         1.485448         0.606332
 H        -1.786263        -0.957398         0.429595
 H        -1.962747        -0.274909         2.044771
 H        -3.577024         0.464201        -0.532829
 H        -1.307991         0.237802        -1.658131
 H        -2.131058         4.124173        -0.590711
 H        -3.588792         3.175560        -1.204460
 H        -3.498728         2.539368         1.315244
 H        -0.651628         3.087313         0.829245
 H        -1.151075         2.098322         2.310101
