19
Iteration:  1439
 O         0.544491         0.617801         0.619021
 C        -0.808193         0.952553         0.445776
 C        -1.843470        -0.002162         0.989368
 C        -2.735204         0.844661         0.029285
 C        -1.498662         1.026093        -0.882571
 O        -1.545793         2.372499        -1.469194
 C        -2.629424         3.029540        -0.798826
 C        -2.700782         2.283858         0.573573
 C        -1.274067         2.300988         1.185450
 H         1.142771         0.747467        -0.141249
 H        -1.497335        -0.973072         0.642216
 H        -2.159996         0.101077         1.974918
 H        -3.679007         0.525269        -0.472852
 H        -1.290039         0.271117        -1.605589
 H        -2.366251         4.130793        -0.763719
 H        -3.589530         2.738391        -1.382844
 H        -3.496002         2.707893         1.243657
 H        -0.836799         3.181347         0.683833
 H        -1.144019         2.316376         2.202870
