19
Iteration:  1415
 O         0.678545         0.691547         0.584974
 C        -0.790380         0.984943         0.543527
 C        -1.950086         0.005404         0.978902
 C        -2.777364         0.787806         0.025848
 C        -1.489450         1.025962        -0.854545
 O        -1.623484         2.285602        -1.557592
 C        -2.566055         3.110268        -0.731625
 C        -2.701551         2.255446         0.477065
 C        -1.276858         2.307439         1.240140
 H         0.890132         0.572914        -0.394930
 H        -1.828925        -1.005203         0.514726
 H        -2.154370        -0.051259         1.958193
 H        -3.648378         0.440339        -0.460299
 H        -1.237978         0.213129        -1.580578
 H        -2.055062         4.096347        -0.609787
 H        -3.526853         3.132286        -1.340943
 H        -3.374719         2.666062         1.272249
 H        -0.712439         3.193981         0.975141
 H        -1.424185         2.199450         2.355521
