19
Iteration:  3122charge 0 multiplicity 1
 O         0.572485         0.589343         0.672387
 C        -0.767177         0.974672         0.497751
 C        -1.734041        -0.075347         0.940094
 C        -2.758374         0.801795         0.007710
 C        -1.613810         1.118889        -0.888678
 O        -1.738978         2.376194        -1.510087
 C        -2.650675         3.131969        -0.794199
 C        -2.696098         2.201460         0.557055
 C        -1.136050         2.282124         1.134503
 H         1.136411         1.323879         0.450649
 H        -1.602543        -1.173496         0.648920
 H        -1.958314        -0.145806         2.051708
 H        -3.714717         0.446821        -0.440645
 H        -1.186478         0.440890        -1.577784
 H        -2.197161         4.205345        -0.845061
 H        -3.603846         3.002290        -1.177618
 H        -3.326057         2.472300         1.344080
 H        -0.610582         3.192845         0.625027
 H        -0.822492         2.374281         2.150434
