19
Iteration:  3781
 O         0.613312         0.684992         0.580045
 C        -0.784804         0.956515         0.495938
 C        -1.804935        -0.055482         0.978700
 C        -2.761459         0.890235        -0.005876
 C        -1.561578         1.001123        -0.926270
 O        -1.630963         2.275271        -1.519005
 C        -2.598354         3.036989        -0.804611
 C        -2.696100         2.320916         0.594341
 C        -1.245616         2.261984         1.261180
 H         1.107927         1.480732         0.220062
 H        -1.836347        -0.941562         0.375891
 H        -1.925865        -0.115176         2.075556
 H        -3.647639         0.558390        -0.421033
 H        -1.582898         0.019831        -1.427600
 H        -2.110001         4.053903        -0.809494
 H        -3.619292         3.289346        -1.317493
 H        -3.533362         2.780237         1.169950
 H        -0.697311         3.249574         1.041549
 H        -1.252275         2.125214         2.271327
