19
Iteration:   527charge 0 multiplicity 1
 O         0.588393         0.460664         0.824418
 C        -0.725140         0.936582         0.452043
 C        -1.769230         0.025458         0.910683
 C        -2.690601         0.839785         0.047525
 C        -1.540337         1.107072        -0.941179
 O        -1.674884         2.339405        -1.548920
 C        -2.805261         3.059474        -0.761305
 C        -2.666430         2.295475         0.540828
 C        -1.206203         2.360548         1.056519
 H         1.286871         1.072944         0.492329
 H        -1.636163        -0.949203         0.475208
 H        -1.863235         0.225887         2.017815
 H        -3.671493         0.439003        -0.297418
 H        -1.205064         0.380683        -1.738002
 H        -2.559515         4.098403        -0.716238
 H        -3.784702         2.919536        -1.270010
 H        -3.264411         2.720075         1.287977
 H        -0.592329         3.178356         0.785426
 H        -1.305852         2.430052         2.172728
