19
Iteration:  3243
 O         0.569413         0.612143         0.606050
 C        -0.716822         0.968705         0.525979
 C        -1.746406        -0.111301         0.895230
 C        -2.717892         0.843876         0.026264
 C        -1.564055         1.119924        -0.825457
 O        -1.764004         2.308217        -1.560339
 C        -2.683517         3.090853        -0.838695
 C        -2.697231         2.353067         0.606987
 C        -1.156968         2.223548         1.212711
 H         1.152320         1.406983         0.386707
 H        -1.591136        -1.245602         0.544604
 H        -2.088931         0.056859         1.937898
 H        -3.573523         0.363602        -0.485951
 H        -1.245795         0.363085        -1.466699
 H        -2.122529         4.134336        -0.597856
 H        -3.650029         3.089778        -1.371608
 H        -3.469387         2.731051         1.242082
 H        -0.640321         3.177901         0.864158
 H        -1.084306         2.145582         2.254100
