19
Iteration:   182
 O         0.632410         0.521875         0.686825
 C        -0.732047         0.974504         0.474876
 C        -1.803567         0.005332         0.867193
 C        -2.687977         0.819199        -0.035213
 C        -1.547642         1.048108        -0.937539
 O        -1.729509         2.303817        -1.530538
 C        -2.673078         3.041218        -0.755302
 C        -2.691426         2.367578         0.574807
 C        -1.222117         2.375701         1.171535
 H         0.689162         0.578220         1.679583
 H        -1.506656        -1.136012         0.557637
 H        -1.972620         0.101484         1.951850
 H        -3.651399         0.491982        -0.378838
 H        -1.287093         0.388812        -1.715891
 H        -2.386714         4.122146        -0.730865
 H        -3.695812         3.145071        -1.099631
 H        -3.563296         2.592038         1.245436
 H        -0.607168         3.257094         0.703612
 H        -0.986294         2.481821         2.230940
