19
Iteration:  1476
 O         0.637867         0.530142         0.675690
 C        -0.731023         1.021226         0.506125
 C        -1.852693        -0.019168         0.899314
 C        -2.760159         0.837699         0.034470
 C        -1.507951         1.054036        -0.876528
 O        -1.650646         2.336951        -1.511172
 C        -2.650030         3.068408        -0.815515
 C        -2.708936         2.328236         0.553223
 C        -1.257480         2.284326         1.156146
 H         1.067433         1.435436         0.753073
 H        -1.796606        -1.061005         0.559131
 H        -1.928951        -0.217531         2.093305
 H        -3.614871         0.497398        -0.586561
 H        -1.525999         0.175909        -1.562987
 H        -2.420898         4.119664        -0.882590
 H        -3.650259         3.035178        -1.318286
 H        -3.423137         2.635656         1.305315
 H        -0.737596         3.045092         0.577813
 H        -0.959694         2.377445         2.220559
