19
Iteration:   155charge 0 multiplicity 1
 O         0.599823         0.699523         0.503171
 C        -0.775152         0.948165         0.512642
 C        -1.867967        -0.008067         0.975060
 C        -2.729745         0.807334         0.108106
 C        -1.522044         1.054635        -0.884939
 O        -1.667567         2.290562        -1.641704
 C        -2.517110         3.118730        -0.796540
 C        -2.678023         2.282160         0.511747
 C        -1.319574         2.231142         1.281220
 H         0.934005         0.984688         1.394971
 H        -1.877086        -0.909351         0.558374
 H        -1.923143         0.023369         2.062876
 H        -3.627159         0.218799        -0.286090
 H        -1.302855         0.249873        -1.679759
 H        -1.982842         4.054232        -0.568601
 H        -3.514462         3.316381        -1.184311
 H        -3.460995         2.556006         1.244912
 H        -0.716072         3.065403         1.059523
 H        -1.346449         2.207692         2.387560
