19
Iteration:  1189charge 0 multiplicity 1
 O         0.612684         0.801589         0.636796
 C        -0.800969         0.998370         0.504696
 C        -1.934008        -0.095325         0.959221
 C        -2.766401         0.850340        -0.003342
 C        -1.524406         1.050588        -0.966897
 O        -1.593546         2.282858        -1.573043
 C        -2.586050         3.053189        -0.735744
 C        -2.622944         2.292595         0.622908
 C        -1.265293         2.266011         1.192048
 H         0.871213        -0.057441         0.288877
 H        -1.689922        -0.992802         0.471922
 H        -2.252126        -0.232743         2.043273
 H        -3.707794         0.416123        -0.342769
 H        -1.384543         0.157155        -1.508400
 H        -2.062293         4.003497        -0.694320
 H        -3.589359         3.216635        -1.312853
 H        -3.494140         2.617452         1.162348
 H        -0.670419         3.233827         0.900140
 H        -1.138895         2.126000         2.371854
