19
Iteration:   995
 O         0.569356         0.593323         0.763849
 C        -0.817065         0.937485         0.522069
 C        -1.827320        -0.066511         0.950444
 C        -2.786889         0.766474         0.121259
 C        -1.540834         1.144964        -0.996953
 O        -1.547797         2.424810        -1.503853
 C        -2.743537         3.081360        -0.773360
 C        -2.667291         2.222877         0.481934
 C        -1.118007         2.326753         1.096702
 H         1.002093         0.787055        -0.093690
 H        -1.569249        -1.016200         0.542760
 H        -2.254844        -0.240353         2.044041
 H        -3.801681         0.624623        -0.317245
 H        -1.267746         0.358973        -1.694582
 H        -2.620920         4.182105        -0.672616
 H        -3.599618         2.777689        -1.342952
 H        -3.412874         2.457533         1.215706
 H        -0.639503         3.049188         0.557736
 H        -0.981987         2.587914         2.061091
