19
Iteration:  1897charge 0 multiplicity 1
 O         0.632687         0.626148         0.639608
 C        -0.756786         0.959157         0.533445
 C        -1.793050        -0.006934         0.943968
 C        -2.724997         0.843023         0.092960
 C        -1.564471         0.977075        -0.918025
 O        -1.722497         2.357875        -1.626004
 C        -2.606612         3.111464        -0.767132
 C        -2.691447         2.309300         0.573973
 C        -1.267691         2.228933         1.167676
 H         1.079707         1.463942         0.661583
 H        -1.741529        -0.995386         0.404072
 H        -1.936048        -0.204403         2.018972
 H        -3.577559         0.460892        -0.507020
 H        -1.346058         0.180695        -1.648499
 H        -2.152490         4.074734        -0.661510
 H        -3.532344         3.199425        -1.249870
 H        -3.505573         2.548494         1.344946
 H        -0.653854         3.169339         0.818982
 H        -1.155392         2.109572         2.351298
