19
Iteration:    14charge 0 multiplicity 1
 O         0.748344         0.593186         0.700059
 C        -0.692204         0.925925         0.409249
 C        -1.866301        -0.034250         0.888965
 C        -2.782348         0.879373         0.014274
 C        -1.592885         1.068454        -0.915197
 O        -1.614383         2.402488        -1.551663
 C        -2.650528         3.089245        -0.721479
 C        -2.712298         2.291144         0.566604
 C        -1.259113         2.236599         1.105800
 H         0.745640         0.695510         1.695164
 H        -1.901202        -0.997465         0.603419
 H        -2.208028         0.153329         1.994490
 H        -3.779600         0.448646        -0.293426
 H        -1.576352         0.189029        -1.652192
 H        -2.382090         4.166396        -0.727296
 H        -3.692119         2.785729        -1.197651
 H        -3.534564         2.639860         1.235723
 H        -0.745689         3.067270         0.846213
 H        -1.204318         2.263283         2.209320
