19
Iteration:  2816
 O         0.618326         0.725881         0.700773
 C        -0.742885         0.935139         0.507525
 C        -1.877587        -0.061641         0.899212
 C        -2.783182         0.814975         0.094204
 C        -1.467043         1.051900        -0.879937
 O        -1.697598         2.348327        -1.525415
 C        -2.655916         3.025978        -0.786804
 C        -2.653930         2.309200         0.549232
 C        -1.189997         2.239267         1.090526
 H         0.965229         0.557201        -0.170472
 H        -1.603680        -1.013891         0.455422
 H        -2.129116        -0.083832         2.066554
 H        -3.815491         0.559928        -0.193151
 H        -1.215560         0.237335        -1.502889
 H        -2.328868         4.138090        -0.656523
 H        -3.695912         3.216782        -1.222857
 H        -3.392833         2.823355         1.169693
 H        -0.654536         3.146542         0.695462
 H        -1.228918         2.271663         2.146157
