19
Iteration:  1332charge 0 multiplicity 1
 O         0.651936         0.663253         0.597739
 C        -0.792466         0.959245         0.573287
 C        -1.861463        -0.012482         0.967612
 C        -2.724160         0.820235         0.009132
 C        -1.494840         1.065271        -0.845882
 O        -1.662074         2.389099        -1.547628
 C        -2.600775         3.084909        -0.768696
 C        -2.726243         2.261448         0.506104
 C        -1.245607         2.264811         1.089872
 H         0.585689        -0.260358         0.807824
 H        -1.647055        -1.016700         0.570697
 H        -2.252073        -0.003536         2.129756
 H        -3.757905         0.445053        -0.155449
 H        -1.074301         0.437907        -1.567654
 H        -2.284210         4.119343        -0.781481
 H        -3.582180         3.067157        -1.202349
 H        -3.482433         2.608886         1.192618
 H        -0.563023         3.154088         0.837653
 H        -1.245704         2.115609         2.259066
