19
Iteration:   214
 O         0.647291         0.638857         0.602899
 C        -0.827873         0.927744         0.551462
 C        -1.892485        -0.084078         0.903763
 C        -2.768231         0.809777         0.023610
 C        -1.508454         1.057784        -0.840847
 O        -1.607858         2.427286        -1.479665
 C        -2.747444         2.963101        -0.791038
 C        -2.653057         2.377716         0.541526
 C        -1.125153         2.349889         1.056084
 H         0.738014         0.325697         1.502310
 H        -1.572984        -1.185299         0.702055
 H        -2.174335        -0.062234         1.957523
 H        -3.759022         0.513072        -0.358025
 H        -1.167023         0.425261        -1.628106
 H        -2.511865         4.065327        -0.597540
 H        -3.693090         2.811688        -1.209556
 H        -3.505617         2.638541         1.250023
 H        -0.575272         2.926569         0.239932
 H        -0.949629         2.484469         2.106485
