19
Iteration:  3851charge 0 multiplicity 1
 O         0.624809         0.590687         0.657815
 C        -0.697924         0.964012         0.454333
 C        -1.878634        -0.008909         0.927265
 C        -2.770436         0.848943         0.064322
 C        -1.536809         1.055291        -0.894833
 O        -1.689153         2.312767        -1.492212
 C        -2.635158         2.989257        -0.807133
 C        -2.725797         2.350696         0.561318
 C        -1.181558         2.297838         1.174520
 H         1.253978         1.298985         0.345346
 H        -1.879956        -0.985242         0.379391
 H        -2.067025         0.056598         2.011282
 H        -3.670098         0.391783        -0.552328
 H        -1.021956         0.454408        -1.677752
 H        -2.391944         4.101064        -0.690822
 H        -3.669903         3.102853        -1.345426
 H        -3.522232         2.663980         1.261496
 H        -0.667367         3.168740         0.921088
 H        -1.035501         2.137994         2.220470
