19
Iteration:  3352charge 0 multiplicity 1
 O         0.547570         0.692526         0.544307
 C        -0.844669         0.949388         0.454481
 C        -1.782121        -0.103036         0.959431
 C        -2.683038         0.770599         0.127392
 C        -1.534554         1.049249        -0.953152
 O        -1.692717         2.321852        -1.575989
 C        -2.574214         3.091157        -0.765775
 C        -2.671497         2.327841         0.576698
 C        -1.252714         2.327358         1.251946
 H         1.084232         1.380076         0.182808
 H        -1.594374        -1.249767         0.797025
 H        -1.918924        -0.092227         2.043569
 H        -3.506345         0.179049        -0.315429
 H        -1.396802         0.221052        -1.553532
 H        -2.017432         4.138434        -0.601747
 H        -3.547668         3.180241        -1.338654
 H        -3.518757         2.587837         1.162808
 H        -0.596894         3.244158         1.362772
 H        -1.371552         2.049358         2.224333
