19
Iteration:   503
 O         0.628506         0.581973         0.717528
 C        -0.757493         0.971376         0.499886
 C        -1.887545        -0.080495         0.960551
 C        -2.746002         0.814368        -0.007278
 C        -1.568013         1.049325        -0.892604
 O        -1.624755         2.380566        -1.525140
 C        -2.721576         3.019953        -0.776556
 C        -2.709532         2.337797         0.586719
 C        -1.094210         2.306643         1.069132
 H         1.204481         1.342535         0.701418
 H        -1.737789        -0.993184         0.479016
 H        -2.353709        -0.002154         1.981264
 H        -3.815657         0.561942        -0.406227
 H        -1.123398         0.345262        -1.690632
 H        -2.626980         4.114887        -0.980904
 H        -3.727994         2.669479        -1.206286
 H        -3.377114         2.738870         1.233318
 H        -0.598554         3.174939         0.622651
 H        -0.904416         2.432094         2.189897
