19
Iteration:  2928
 O         0.646355         0.685638         0.488971
 C        -0.782104         0.960716         0.458236
 C        -1.870577        -0.034429         0.956690
 C        -2.725750         0.811978         0.071078
 C        -1.565348         1.040030        -0.917831
 O        -1.639578         2.342058        -1.460895
 C        -2.601450         3.011560        -0.754162
 C        -2.719053         2.298641         0.559770
 C        -1.218466         2.270393         1.192388
 H         1.060122         1.288545         1.109494
 H        -1.787055        -1.026985         0.459023
 H        -2.047921        -0.056195         2.003527
 H        -3.723487         0.411114        -0.209110
 H        -1.324293         0.347817        -1.721122
 H        -2.240464         4.008201        -0.678068
 H        -3.496066         3.162396        -1.404825
 H        -3.522544         2.692073         1.254774
 H        -0.671042         3.112227         0.964781
 H        -1.375759         2.127099         2.248018
