19
Iteration:  2418
 O         0.614996         0.634398         0.640496
 C        -0.754439         1.007872         0.482394
 C        -1.828381         0.002912         0.966297
 C        -2.732827         0.830186         0.090181
 C        -1.549284         0.933455        -0.962574
 O        -1.725623         2.310832        -1.588613
 C        -2.597801         3.082619        -0.746471
 C        -2.633651         2.264401         0.566349
 C        -1.272413         2.364711         1.170365
 H         1.058638         1.340141         0.185652
 H        -1.702224        -1.032637         0.390364
 H        -2.016575        -0.212622         2.036703
 H        -3.735847         0.398259        -0.121588
 H        -1.033928         0.195549        -1.580291
 H        -2.090060         4.064520        -0.571036
 H        -3.615724         3.118332        -1.169432
 H        -3.416438         2.331215         1.256026
 H        -0.806510         3.300402         0.912008
 H        -1.264077         2.355640         2.305747
