19
Iteration:  2191charge 0 multiplicity 1
 O         0.561722         0.610324         0.680880
 C        -0.748543         0.986285         0.565804
 C        -1.751510        -0.013500         0.917564
 C        -2.700482         0.679227         0.022058
 C        -1.585460         1.018205        -0.927937
 O        -1.814683         2.309762        -1.681593
 C        -2.568572         3.100213        -0.789426
 C        -2.676137         2.355553         0.600475
 C        -1.156239         2.358506         1.244168
 H         1.146266         1.352436         0.377960
 H        -1.592546        -1.044436         0.573942
 H        -2.131753        -0.025774         1.991033
 H        -3.714673         0.255764        -0.228596
 H        -1.275105         0.245870        -1.610701
 H        -2.184833         4.166904        -0.741736
 H        -3.503820         3.137721        -1.292282
 H        -3.497303         2.664922         1.405548
 H        -0.560868         3.283295         0.915159
 H        -1.215800         2.241108         2.300270
