19
Iteration:  2881charge 0 multiplicity 1
 O         0.602180         0.745370         0.506411
 C        -0.741860         0.971619         0.485474
 C        -1.768559        -0.098454         0.967643
 C        -2.737600         0.793165         0.049701
 C        -1.544069         0.972805        -0.902734
 O        -1.657368         2.306146        -1.517627
 C        -2.639989         3.113756        -0.807430
 C        -2.694359         2.337202         0.550589
 C        -1.285729         2.314878         1.281855
 H         0.911792        -0.077830         0.997971
 H        -1.626450        -1.135456         0.658974
 H        -2.304804         0.111971         1.978628
 H        -3.758513         0.491362        -0.244635
 H        -1.233686         0.372741        -1.685792
 H        -2.111778         4.173883        -0.711009
 H        -3.558731         3.499090        -1.344367
 H        -3.564197         2.457312         1.149116
 H        -0.633874         3.128021         0.839051
 H        -1.105726         2.118006         2.310055
