19
Iteration:  4546charge 0 multiplicity 1
 O         0.541862         0.638107         0.590608
 C        -0.800852         1.002813         0.525413
 C        -1.760389        -0.085717         0.970026
 C        -2.756037         0.871254         0.065174
 C        -1.523854         1.100604        -0.863373
 O        -1.663872         2.261417        -1.599644
 C        -2.564585         3.051415        -0.790441
 C        -2.617441         2.338018         0.565108
 C        -1.318706         2.227752         1.201991
 H         1.065540         1.382619         0.291757
 H        -1.768742        -1.126985         0.579001
 H        -2.106092        -0.073461         2.005002
 H        -3.617977         0.495973        -0.491720
 H        -1.396345         0.344141        -1.567197
 H        -1.948325         4.033138        -0.659049
 H        -3.497519         3.314455        -1.192109
 H        -3.503805         2.735893         1.140774
 H        -0.604575         3.157063         1.003651
 H        -1.385182         2.083354         2.221761
