19
Iteration:  4995
 O         0.551413         0.622413         0.549360
 C        -0.772460         0.983351         0.532360
 C        -1.892561        -0.036985         0.962178
 C        -2.735544         0.853363         0.034648
 C        -1.535222         1.050069        -0.893584
 O        -1.592479         2.339950        -1.528968
 C        -2.588639         3.017193        -0.825847
 C        -2.712750         2.316250         0.591363
 C        -1.218801         2.248841         1.229489
 H         1.146117         1.347527         0.405158
 H        -1.872199        -0.940651         0.474003
 H        -1.826437         0.049944         2.036626
 H        -3.700705         0.437391        -0.333676
 H        -1.334703         0.167091        -1.536729
 H        -2.215747         4.064250        -0.543526
 H        -3.518015         3.122046        -1.365253
 H        -3.484881         2.785919         1.221916
 H        -0.737051         3.157422         0.774260
 H        -1.144443         2.040251         2.247828
