19
Iteration:  2663charge 0 multiplicity 1
 O         0.565509         0.563435         0.665666
 C        -0.785100         1.025526         0.516397
 C        -1.771682         0.005313         1.005536
 C        -2.712925         0.800709         0.077710
 C        -1.556496         1.104004        -0.943434
 O        -1.660380         2.338062        -1.578887
 C        -2.644920         3.013670        -0.769069
 C        -2.642812         2.310875         0.518728
 C        -1.274077         2.271078         1.140353
 H         1.225627         1.057685         0.154425
 H        -1.690784        -1.013835         0.623336
 H        -1.937146        -0.074489         2.168200
 H        -3.678771         0.445171        -0.160057
 H        -1.126993         0.434915        -1.710148
 H        -2.401135         4.113551        -0.631823
 H        -3.626276         2.921155        -1.175259
 H        -3.463594         2.629809         1.213794
 H        -0.798746         3.227020         0.679803
 H        -1.146061         2.275552         2.170097
