19
Iteration:  1907charge 0 multiplicity 1
 O         0.552639         0.614369         0.702726
 C        -0.708926         0.939940         0.495000
 C        -1.785415        -0.134181         0.974425
 C        -2.617989         0.819820         0.043338
 C        -1.568463         1.089866        -0.907567
 O        -1.748315         2.301333        -1.625359
 C        -2.619827         3.139485        -0.757086
 C        -2.670839         2.333800         0.580211
 C        -1.277642         2.332393         1.109196
 H         1.143553         1.278836         0.316967
 H        -1.749747        -1.142744         0.393457
 H        -2.100278        -0.344056         1.986247
 H        -3.628324         0.482403        -0.189941
 H        -1.204493         0.394741        -1.676543
 H        -2.257192         4.076368        -0.473435
 H        -3.643222         3.202692        -1.077294
 H        -3.588336         2.633012         1.222332
 H        -0.440959         3.142810         0.800478
 H        -1.230059         2.186781         2.283242
