19
Iteration:  3186
 O         0.570746         0.672358         0.483168
 C        -0.782917         0.944316         0.545433
 C        -1.823154        -0.122472         1.046013
 C        -2.756013         0.769989         0.080458
 C        -1.503833         1.006186        -0.881496
 O        -1.609123         2.350080        -1.601952
 C        -2.601078         3.176671        -0.742474
 C        -2.703080         2.330901         0.588348
 C        -1.260580         2.277844         1.183580
 H         0.910909         1.454550         0.068224
 H        -1.796642        -1.097409         0.495504
 H        -1.885712        -0.451036         2.135489
 H        -3.688704         0.228234        -0.206865
 H        -0.977994         0.368815        -1.628147
 H        -2.353445         4.308270        -0.625743
 H        -3.579565         3.103990        -1.311395
 H        -3.583778         2.489890         1.199961
 H        -0.844212         3.262156         0.986388
 H        -1.233363         2.189833         2.221210
