19
Iteration:  1877
 O         0.636539         0.683670         0.528903
 C        -0.732401         1.038598         0.424974
 C        -1.889416        -0.030260         0.919784
 C        -2.808412         0.767446         0.037330
 C        -1.596129         1.080599        -0.863673
 O        -1.619441         2.247575        -1.518505
 C        -2.572076         3.035627        -0.741558
 C        -2.659474         2.296400         0.559900
 C        -1.242614         2.292822         1.180597
 H         1.092818         1.392383         0.999907
 H        -1.809931        -1.099097         0.757271
 H        -2.192241         0.058864         2.024179
 H        -3.959669         0.548212        -0.151152
 H        -1.145586         0.420141        -1.605825
 H        -2.183502         4.071516        -0.497980
 H        -3.547283         2.978988        -1.215701
 H        -3.498224         2.722001         1.188325
 H        -0.585507         3.145204         1.094548
 H        -1.251400         1.901232         2.295202
