19
Iteration:  4829charge 0 multiplicity 1
 O         0.585166         0.556035         0.625936
 C        -0.796355         1.013470         0.513427
 C        -1.876319         0.014944         0.965320
 C        -2.717028         0.824824         0.054983
 C        -1.532359         0.974327        -0.905223
 O        -1.679601         2.325799        -1.622884
 C        -2.639756         3.162496        -0.814696
 C        -2.589913         2.302355         0.584587
 C        -1.258514         2.249913         1.223614
 H         0.980666         1.397220         0.340804
 H        -1.579778        -1.059580         0.710998
 H        -1.930600        -0.135179         2.047549
 H        -3.698656         0.669532        -0.430159
 H        -1.192258         0.295462        -1.746104
 H        -2.088065         4.105799        -0.686071
 H        -3.621019         3.123867        -1.210622
 H        -3.457952         2.462614         1.393658
 H        -0.585626         3.173511         0.952963
 H        -1.212609         2.162506         2.385252
