19
Iteration:  1322
 O         0.627901         0.600718         0.614055
 C        -0.741540         1.017938         0.495348
 C        -1.862911        -0.019410         0.990241
 C        -2.732482         0.839532         0.008182
 C        -1.513974         1.089232        -0.970779
 O        -1.598639         2.352005        -1.486498
 C        -2.666094         3.035100        -0.775613
 C        -2.690944         2.271053         0.565532
 C        -1.270073         2.352567         1.144328
 H         0.627659        -0.347455         0.660319
 H        -1.723623        -1.043107         0.635291
 H        -2.146777        -0.005748         2.158364
 H        -3.660010         0.392424        -0.455366
 H        -1.184947         0.316848        -1.644441
 H        -2.439140         4.034686        -0.474249
 H        -3.544924         2.924736        -1.375716
 H        -3.502994         2.580778         1.187434
 H        -0.608315         3.202109         0.714786
 H        -1.358697         2.494692         2.338964
