19
Iteration:  1962charge 0 multiplicity 1
 O         0.582090         0.657906         0.580405
 C        -0.753622         0.931305         0.493492
 C        -1.813151        -0.057308         1.039511
 C        -2.806772         0.751787         0.078690
 C        -1.498179         1.033391        -0.864326
 O        -1.611193         2.430090        -1.498033
 C        -2.651713         3.061635        -0.857044
 C        -2.673067         2.309749         0.551361
 C        -1.264205         2.259773         1.137934
 H         0.997328         1.097532        -0.233916
 H        -1.695469        -1.090891         0.559322
 H        -1.885251        -0.074016         2.144141
 H        -3.758539         0.326070        -0.333944
 H        -1.031505         0.402123        -1.641340
 H        -2.523754         4.093798        -0.673906
 H        -3.765678         3.037063        -1.298712
 H        -3.451048         2.790470         1.280420
 H        -0.464350         3.107059         0.870569
 H        -1.243335         2.236873         2.331730
