19
Iteration:  2229charge 0 multiplicity 1
 O         0.609043         0.577937         0.586209
 C        -0.754444         0.958089         0.474012
 C        -1.827702         0.041728         0.969963
 C        -2.753976         0.797624         0.049501
 C        -1.544762         1.077343        -0.844546
 O        -1.584672         2.378387        -1.506162
 C        -2.667203         2.982381        -0.842400
 C        -2.764659         2.305285         0.625664
 C        -1.187138         2.312133         1.098341
 H         1.001936         1.484060         0.501580
 H        -1.546304        -0.995424         0.689168
 H        -2.214479         0.105148         1.998588
 H        -3.630724         0.197371         0.041899
 H        -1.451845         0.318952        -1.668223
 H        -2.611016         4.051548        -0.818507
 H        -3.713895         2.861041        -1.397011
 H        -3.504168         2.442601         1.338300
 H        -0.571767         3.071623         0.743401
 H        -0.961318         2.283698         2.196942
