19
Iteration:  4234charge 0 multiplicity 1
 O         0.630266         0.644996         0.575006
 C        -0.812385         0.985041         0.462455
 C        -1.786175        -0.000185         0.959755
 C        -2.812691         0.870908         0.010947
 C        -1.548032         1.061472        -0.863217
 O        -1.665034         2.272186        -1.553380
 C        -2.556092         3.040592        -0.796211
 C        -2.708937         2.266551         0.586463
 C        -1.229653         2.239252         1.220901
 H         1.052365         1.521234         0.708225
 H        -1.907927        -1.007473         0.599193
 H        -2.108511         0.103843         2.017943
 H        -3.713789         0.502326        -0.458451
 H        -1.235268         0.243733        -1.525889
 H        -2.090439         4.004221        -0.462326
 H        -3.584903         3.189927        -1.298651
 H        -3.458178         2.663007         1.171764
 H        -0.654979         3.088034         0.906445
 H        -1.110407         2.263561         2.292785
