19
Iteration:   773charge 0 multiplicity 1
 O         0.530622         0.742029         0.508279
 C        -0.784136         0.979834         0.520705
 C        -1.810105        -0.090025         0.931580
 C        -2.749096         0.778609         0.034850
 C        -1.548861         1.020334        -0.813891
 O        -1.604913         2.228632        -1.487100
 C        -2.482140         3.097296        -0.820700
 C        -2.652237         2.394306         0.494449
 C        -1.379803         2.240487         1.275773
 H         0.913376         1.402891        -0.154385
 H        -1.555373        -1.165783         0.582699
 H        -2.058322        -0.202451         2.049136
 H        -3.831055         0.640221        -0.078339
 H        -1.220568         0.198975        -1.516778
 H        -1.886696         4.030600        -0.623806
 H        -3.571117         3.311398        -1.276212
 H        -3.479226         2.972473         1.144885
 H        -0.718600         3.091514         1.046639
 H        -1.344134         1.953589         2.287720
