19
Iteration:  2907
 O         0.598606         0.754258         0.437682
 C        -0.752238         1.000153         0.484834
 C        -1.834090        -0.052239         0.934274
 C        -2.844183         0.846207         0.033124
 C        -1.503865         1.016071        -0.800718
 O        -1.551451         2.235819        -1.552479
 C        -2.632301         3.123397        -0.673797
 C        -2.697448         2.293215         0.586127
 C        -1.275589         2.262109         1.179567
 H         1.077179         0.586526         1.328232
 H        -1.573015        -1.054440         0.510138
 H        -2.034339        -0.077596         1.950289
 H        -3.747094         0.611174        -0.568690
 H        -1.368276         0.159628        -1.569099
 H        -2.299850         4.096609        -0.841961
 H        -3.628146         3.042174        -1.140541
 H        -3.533735         2.525442         1.374481
 H        -0.795445         3.112956         0.854651
 H        -1.187910         2.111599         2.284834
