19
Iteration:  4968
 O         0.642085         0.592431         0.685018
 C        -0.769301         0.969822         0.538414
 C        -1.876934        -0.079424         0.930866
 C        -2.742116         0.846124        -0.026363
 C        -1.605165         1.027709        -0.906798
 O        -1.671707         2.334504        -1.548149
 C        -2.615127         3.110445        -0.746198
 C        -2.620662         2.345263         0.574756
 C        -1.251694         2.270396         1.094529
 H         1.236699         1.318947         0.518614
 H        -1.731819        -1.187699         0.531800
 H        -1.772114        -0.070998         2.051932
 H        -3.752613         0.625795        -0.367875
 H        -1.419353         0.215697        -1.665515
 H        -2.175952         4.094133        -0.643208
 H        -3.636633         2.927483        -1.204405
 H        -3.399437         2.761255         1.236510
 H        -0.754499         3.190045         0.825659
 H        -1.165858         2.224748         2.290652
