19
Iteration:  4040charge 0 multiplicity 1
 O         0.586095         0.553340         0.684011
 C        -0.758212         0.993537         0.526533
 C        -1.817278        -0.032308         0.943298
 C        -2.696285         0.822560         0.077143
 C        -1.524502         1.063174        -0.934729
 O        -1.704373         2.350111        -1.520020
 C        -2.638116         3.048034        -0.800991
 C        -2.671151         2.343467         0.562684
 C        -1.279595         2.311097         1.123523
 H         1.271442         1.133727         0.293570
 H        -1.880786        -0.961957         0.406394
 H        -1.785698        -0.156406         2.029040
 H        -3.602217         0.385297        -0.246042
 H        -1.329517         0.280524        -1.681487
 H        -2.325574         4.086636        -0.791409
 H        -3.605216         2.991512        -1.453793
 H        -3.346121         2.712438         1.315953
 H        -0.562837         3.053134         0.620804
 H        -1.140052         2.241538         2.194755
