19
Iteration:   268
 O         0.568932         0.771410         0.363414
 C        -0.825986         1.006515         0.615220
 C        -1.877389        -0.119141         1.021255
 C        -2.723320         0.781329         0.051816
 C        -1.531807         1.035325        -0.803541
 O        -1.667727         2.167305        -1.612387
 C        -2.413038         3.189753        -0.808787
 C        -2.680767         2.332496         0.544688
 C        -1.351329         2.269691         1.278060
 H         1.103252         0.958378         1.153659
 H        -1.547152        -1.005344         0.427758
 H        -2.210727        -0.208704         2.017061
 H        -3.648466         0.376684        -0.372346
 H        -1.206820         0.288047        -1.522220
 H        -1.691175         4.080615        -0.675717
 H        -3.352831         3.383663        -1.378279
 H        -3.612488         2.477999         1.206307
 H        -0.850185         3.319858         1.231861
 H        -1.378810         2.174092         2.373515
