19
Iteration:  3488
 O         0.645178         0.707815         0.551633
 C        -0.763171         0.917093         0.517073
 C        -1.786119        -0.065032         0.980124
 C        -2.787097         0.806253         0.026642
 C        -1.552396         1.033625        -0.884977
 O        -1.646169         2.259157        -1.553786
 C        -2.600745         3.147325        -0.730479
 C        -2.673966         2.359748         0.570206
 C        -1.317744         2.239610         1.184281
 H         1.098283         1.361869        -0.010197
 H        -1.712642        -1.068371         0.739029
 H        -2.046880        -0.131236         2.038587
 H        -3.710521         0.303823        -0.258625
 H        -1.386590         0.169783        -1.635805
 H        -2.079506         4.145312        -0.631801
 H        -3.571624         3.323590        -1.338123
 H        -3.521893         2.752741         1.229455
 H        -0.724371         3.045342         0.915852
 H        -1.367443         2.177263         2.305647
