19
Iteration:  2654
 O         0.608607         0.592399         0.634883
 C        -0.729064         0.998336         0.504830
 C        -1.833798         0.003965         1.010407
 C        -2.766332         0.742309         0.144423
 C        -1.539263         1.044572        -0.944809
 O        -1.666147         2.370391        -1.531371
 C        -2.631367         3.072178        -0.824292
 C        -2.672286         2.275886         0.509816
 C        -1.246641         2.317939         1.159134
 H         1.178165         1.174394         0.089444
 H        -1.612007        -0.859059         0.492478
 H        -2.187664        -0.181008         1.989888
 H        -3.777523         0.337716         0.019619
 H        -1.239429         0.283953        -1.767004
 H        -2.396510         4.107381        -0.753775
 H        -3.473916         3.035097        -1.477947
 H        -3.553463         2.632067         1.162047
 H        -0.535257         3.142220         0.899303
 H        -1.272555         2.276354         2.254379
