19
Iteration:   425charge 0 multiplicity 1
 O         0.553843         0.806727         0.625123
 C        -0.848029         0.971645         0.517030
 C        -1.834576        -0.122216         0.911644
 C        -2.767381         0.795628         0.019028
 C        -1.523934         1.037316        -0.810077
 O        -1.680969         2.139222        -1.685086
 C        -2.464877         3.136496        -0.745723
 C        -2.704751         2.395133         0.596324
 C        -1.223635         2.273883         1.300472
 H         0.887796         1.283957        -0.132098
 H        -1.684895        -1.125707         0.464271
 H        -1.992570        -0.280934         2.015292
 H        -3.715834         0.536389        -0.543819
 H        -1.395876         0.174060        -1.496819
 H        -1.755364         4.007531        -0.661597
 H        -3.405982         3.383066        -1.317431
 H        -3.517730         2.676041         1.183281
 H        -0.560423         3.056308         0.854745
 H        -1.239210         2.116079         2.406465
