19
Iteration:  2430
 O         0.616652         0.696899         0.669622
 C        -0.760823         0.980032         0.493115
 C        -1.765295        -0.022708         0.922298
 C        -2.788350         0.761184         0.019111
 C        -1.587111         1.066326        -0.910451
 O        -1.726314         2.206275        -1.632962
 C        -2.549981         3.091591        -0.697762
 C        -2.731490         2.305697         0.594485
 C        -1.215536         2.296011         1.226752
 H         1.140108         1.329098         0.096480
 H        -1.432155        -1.080679         0.567790
 H        -1.969862         0.014075         2.015510
 H        -3.858794         0.501265        -0.226351
 H        -1.373140         0.313084        -1.652769
 H        -2.146560         4.162477        -0.647582
 H        -3.496502         3.267641        -1.302155
 H        -3.540914         2.800534         1.045267
 H        -0.618455         3.080372         0.724410
 H        -0.986836         2.234102         2.299904
