19
Iteration:  1706
 O         0.628819         0.726975         0.343690
 C        -0.760289         1.007630         0.502863
 C        -1.969303        -0.045481         0.959585
 C        -2.831705         0.810675         0.070244
 C        -1.459279         1.007795        -0.789100
 O        -1.525599         2.284084        -1.496592
 C        -2.563263         3.017434        -0.783312
 C        -2.770693         2.251464         0.578245
 C        -1.260155         2.336604         1.199043
 H         1.171172         1.061672         1.129937
 H        -2.020747        -1.031245         0.619557
 H        -2.185135        -0.039282         2.072832
 H        -3.785268         0.503794        -0.354166
 H        -1.132174         0.175276        -1.452210
 H        -2.175481         3.974219        -0.475489
 H        -3.413492         3.177151        -1.439986
 H        -3.432899         2.508258         1.335674
 H        -0.705778         3.445259         1.110067
 H        -1.407365         2.230778         2.310594
