19
Iteration:  2441charge 0 multiplicity 1
 O         0.599498         0.740119         0.660304
 C        -0.735282         1.046933         0.481971
 C        -1.790512        -0.073716         0.941645
 C        -2.775116         0.799235         0.065360
 C        -1.605755         1.053471        -0.846816
 O        -1.744111         2.256424        -1.621535
 C        -2.542093         3.070492        -0.792987
 C        -2.693183         2.342559         0.592456
 C        -1.229361         2.211215         1.136376
 H         1.219570         1.297213         0.116663
 H        -1.644328        -1.203882         0.608179
 H        -2.004797        -0.123479         2.043504
 H        -3.535713         0.250301        -0.585560
 H        -1.463833         0.146607        -1.397445
 H        -1.827592         3.932313        -0.512845
 H        -3.579206         3.309533        -1.179759
 H        -3.360204         2.644196         1.348743
 H        -0.621735         3.143798         1.032996
 H        -1.235589         2.076281         2.241239
