19
Iteration:  2248charge 0 multiplicity 1
 O         0.544577         0.666206         0.550093
 C        -0.762283         0.997303         0.447705
 C        -1.824972        -0.042376         1.058766
 C        -2.780817         0.819307         0.068347
 C        -1.544028         0.966736        -0.911864
 O        -1.560094         2.368355        -1.436416
 C        -2.678152         2.982073        -0.743407
 C        -2.629595         2.265338         0.486951
 C        -1.230324         2.318112         1.098954
 H         1.128935         1.384654         0.299455
 H        -1.880094        -1.053113         0.698331
 H        -1.849026        -0.038971         2.265822
 H        -3.780642         0.639805        -0.472105
 H        -1.224475         0.313127        -1.753647
 H        -2.603337         4.058552        -0.629819
 H        -3.604778         2.842455        -1.311256
 H        -3.375755         2.762269         1.331377
 H        -0.642284         3.288409         0.825616
 H        -1.331353         2.384500         2.137438
