19
Iteration:   335charge 0 multiplicity 1
 O         0.603999         0.552132         0.580329
 C        -0.754082         0.984644         0.496736
 C        -1.868010        -0.010931         0.969999
 C        -2.749459         0.817658         0.042464
 C        -1.476168         1.093251        -0.831805
 O        -1.658727         2.280514        -1.520380
 C        -2.629394         3.063448        -0.812633
 C        -2.694726         2.322933         0.583208
 C        -1.278167         2.345950         1.101256
 H         1.079198         1.107948         1.208394
 H        -1.531550        -0.979086         0.434126
 H        -2.072396        -0.119244         2.003925
 H        -3.687598         0.495312        -0.323164
 H        -1.164182         0.337530        -1.482015
 H        -2.218534         4.155485        -0.867421
 H        -3.628705         2.845224        -1.242548
 H        -3.536186         2.673322         1.223787
 H        -0.603247         3.161802         0.572313
 H        -1.179160         2.409004         2.195036
