19
Iteration:  3167
 O         0.577723         0.634147         0.517833
 C        -0.750318         1.036391         0.498376
 C        -1.827691         0.013616         0.884142
 C        -2.750377         0.805545         0.022362
 C        -1.562154         1.105402        -0.841765
 O        -1.642397         2.311342        -1.479908
 C        -2.623605         2.979120        -0.780199
 C        -2.654882         2.261037         0.602297
 C        -1.258724         2.268022         1.223046
 H         1.120427         1.213421         0.017811
 H        -1.486917        -1.088555         0.711479
 H        -2.025859        -0.084308         1.966643
 H        -3.763007         0.632694        -0.364901
 H        -1.442590         0.309614        -1.498381
 H        -2.203485         4.035944        -0.539074
 H        -3.498787         2.912718        -1.360533
 H        -3.518261         2.592079         1.164304
 H        -0.564522         3.191391         0.962167
 H        -1.266703         2.342531         2.309097
