19
Iteration:  1994
 O         0.609538         0.702126         0.456854
 C        -0.752794         0.961279         0.413658
 C        -1.854866        -0.013826         0.961089
 C        -2.808530         0.825248         0.006739
 C        -1.514685         0.934856        -0.839071
 O        -1.578759         2.293852        -1.460544
 C        -2.552343         2.978610        -0.740817
 C        -2.693743         2.305200         0.667108
 C        -1.349614         2.387104         1.189688
 H         1.219321         1.409778         0.355280
 H        -1.945623        -1.017139         0.437814
 H        -1.974260        -0.155362         2.011986
 H        -3.777338         0.443530        -0.304749
 H        -1.046664         0.217257        -1.523854
 H        -2.123471         3.945849        -0.569413
 H        -3.552792         3.030344        -1.405924
 H        -3.573290         2.770348         1.252175
 H        -0.874028         3.383635         0.924038
 H        -1.339105         2.308182         2.254403
