19
Iteration:  2725charge 0 multiplicity 1
 O         0.546647         0.678913         0.652022
 C        -0.743804         1.013943         0.413242
 C        -1.848550        -0.049698         0.978841
 C        -2.717053         0.827580         0.109803
 C        -1.572056         0.997200        -0.901984
 O        -1.625906         2.288040        -1.579508
 C        -2.650077         3.094233        -0.798618
 C        -2.709802         2.306068         0.590361
 C        -1.181273         2.249167         1.138147
 H         1.047970         1.498282         0.760338
 H        -1.631426        -1.017795         0.417212
 H        -2.003418        -0.169644         2.076484
 H        -3.621028         0.311126        -0.174038
 H        -1.391915         0.224463        -1.584747
 H        -2.212580         4.154746        -0.771772
 H        -3.639570         3.309831        -1.343931
 H        -3.452988         2.614830         1.258263
 H        -0.657372         3.170880         0.919423
 H        -0.917052         1.985206         2.197350
