19
Iteration:  4766charge 0 multiplicity 1
 O         0.582636         0.596050         0.648759
 C        -0.779313         0.905343         0.455356
 C        -1.915924        -0.021578         0.943169
 C        -2.760056         0.845075         0.064538
 C        -1.524916         1.084711        -0.947680
 O        -1.624090         2.350883        -1.494449
 C        -2.613275         3.045448        -0.786135
 C        -2.661548         2.313458         0.585984
 C        -1.211903         2.301223         1.172280
 H         1.137534         1.300722         0.325012
 H        -1.740741        -1.056288         0.560427
 H        -1.931993         0.004885         2.053187
 H        -3.822258         0.504167        -0.270689
 H        -1.212873         0.271211        -1.684805
 H        -2.182299         4.136618        -0.661138
 H        -3.618699         2.945802        -1.422512
 H        -3.471553         2.455808         1.390131
 H        -0.748197         3.082936         0.486847
 H        -0.960253         2.334584         2.183536
