19
Iteration:  1512
 O         0.586031         0.683631         0.610778
 C        -0.724193         0.985495         0.500174
 C        -1.878697        -0.033743         1.006266
 C        -2.782010         0.755617         0.000992
 C        -1.588032         1.060044        -0.871346
 O        -1.719652         2.300827        -1.643557
 C        -2.510128         3.151123        -0.847817
 C        -2.652692         2.254232         0.578563
 C        -1.230768         2.245928         1.249881
 H         1.182479         1.136317         1.275119
 H        -1.617858        -1.038338         0.533311
 H        -1.937601         0.005297         2.095797
 H        -3.604032         0.281412        -0.399131
 H        -1.359008         0.359305        -1.690838
 H        -1.984063         4.100118        -0.681697
 H        -3.460000         3.305843        -1.203600
 H        -3.576328         2.548942         1.078791
 H        -0.691818         3.135793         0.962316
 H        -1.236673         2.205302         2.420100
