19
Iteration:  3467charge 0 multiplicity 1
 O         0.560589         0.637370         0.554976
 C        -0.769297         1.099750         0.511158
 C        -1.909211        -0.084312         1.021923
 C        -2.731232         0.780563         0.094758
 C        -1.511237         1.045931        -0.869261
 O        -1.678488         2.383250        -1.570804
 C        -2.584505         3.072003        -0.757587
 C        -2.712242         2.181167         0.509509
 C        -1.159745         2.325201         1.170382
 H         1.135786         1.091400        -0.053688
 H        -1.671318        -1.030436         0.678393
 H        -2.063001        -0.219223         2.075409
 H        -3.624449         0.276388        -0.333506
 H        -1.083702         0.257716        -1.610610
 H        -2.187581         4.055044        -0.532271
 H        -3.629719         3.205466        -1.284093
 H        -3.566380         2.514940         1.175442
 H        -0.586025         3.118229         0.939648
 H        -1.127596         2.177292         2.301735
