19
Iteration:   735
 O         0.631614         0.669495         0.506840
 C        -0.772911         1.001685         0.442982
 C        -1.890364        -0.007419         0.980598
 C        -2.759073         0.809611         0.077570
 C        -1.586311         1.013105        -0.919595
 O        -1.565806         2.271596        -1.519773
 C        -2.508436         3.053137        -0.749904
 C        -2.708556         2.303149         0.564652
 C        -1.341174         2.258179         1.221121
 H         1.113038         1.515742         0.549922
 H        -1.686160        -1.101143         0.883574
 H        -2.269705         0.295462         1.923616
 H        -3.744183         0.459908        -0.250787
 H        -1.244117         0.284834        -1.636469
 H        -2.121031         4.050086        -0.564428
 H        -3.450187         3.171651        -1.279032
 H        -3.587919         2.610471         0.995544
 H        -0.790142         3.218871         1.076218
 H        -1.283255         2.070535         2.368537
