19
Iteration:   564
 O         0.593559         0.624127         0.605321
 C        -0.729139         1.015501         0.562440
 C        -1.817927        -0.014185         0.948115
 C        -2.763996         0.839860         0.010244
 C        -1.510224         1.075001        -0.898766
 O        -1.695166         2.199688        -1.621616
 C        -2.580528         3.082517        -0.694455
 C        -2.678566         2.283393         0.521591
 C        -1.265714         2.320476         1.193613
 H         1.010470         1.403404         0.217664
 H        -1.906910        -1.130113         0.674839
 H        -2.144759        -0.033383         1.980300
 H        -3.740779         0.537503        -0.301451
 H        -1.093280         0.226007        -1.397843
 H        -2.006744         3.992092        -0.512579
 H        -3.461450         3.244582        -1.225650
 H        -3.552208         2.590957         1.308416
 H        -0.730546         3.242517         0.833131
 H        -1.410252         2.325399         2.241052
