19
Iteration:  3997
 O         0.566652         0.609775         0.594987
 C        -0.768510         0.920061         0.496183
 C        -1.829015         0.030832         1.014143
 C        -2.781272         0.862266         0.027860
 C        -1.462818         1.012728        -0.952724
 O        -1.642676         2.305301        -1.534109
 C        -2.622275         3.049758        -0.723275
 C        -2.670576         2.339871         0.566425
 C        -1.242982         2.246541         1.159886
 H         0.880679         1.484920         0.401528
 H        -1.536171        -0.948215         0.664424
 H        -2.211879        -0.096565         2.030182
 H        -3.708482         0.481500        -0.276977
 H        -1.050429         0.369748        -1.751404
 H        -2.251825         4.068369        -0.653571
 H        -3.712567         2.996934        -1.248753
 H        -3.599592         2.690436         1.082504
 H        -0.782589         3.080207         0.766133
 H        -1.096086         2.497271         2.225668
