19
Iteration:  3371
 O         0.670431         0.654702         0.567665
 C        -0.709091         0.992393         0.534434
 C        -1.762811         0.000925         0.998249
 C        -2.821735         0.809217         0.012227
 C        -1.570365         1.037239        -0.874787
 O        -1.714148         2.319372        -1.614526
 C        -2.565025         3.128225        -0.721721
 C        -2.717386         2.260255         0.554343
 C        -1.302605         2.190479         1.175560
 H         1.226998         1.369830         0.304237
 H        -1.710493        -1.063607         0.662425
 H        -1.982249        -0.123314         2.050571
 H        -3.899841         0.482688        -0.145929
 H        -1.234009         0.320348        -1.662870
 H        -2.136114         4.071005        -0.570323
 H        -3.508132         3.281534        -1.218640
 H        -3.474306         2.534601         1.296933
 H        -0.715135         3.131167         0.841683
 H        -1.295648         2.200137         2.321678
