19
Iteration:  3869
 O         0.595255         0.548167         0.645507
 C        -0.746906         0.985389         0.587952
 C        -1.833985        -0.050200         0.952987
 C        -2.721917         0.841468         0.031750
 C        -1.554045         1.083542        -0.895202
 O        -1.563875         2.359588        -1.616840
 C        -2.767779         3.090024        -0.764215
 C        -2.629344         2.259769         0.567913
 C        -1.245821         2.283653         1.140298
 H         0.999196         1.428696         0.375867
 H        -1.573650        -1.045191         0.518627
 H        -2.005971        -0.027848         2.039973
 H        -3.708965         0.591236        -0.209946
 H        -1.547226         0.218182        -1.597308
 H        -2.490599         4.161803        -0.846751
 H        -3.820297         2.970273        -1.117135
 H        -3.357679         2.675584         1.338121
 H        -0.590963         3.118472         0.611279
 H        -1.219720         2.273190         2.245264
