19
Iteration:   365
 O         0.526605         0.432280         0.612092
 C        -0.751294         0.997001         0.529789
 C        -1.882470         0.067682         1.055355
 C        -2.692570         0.769368        -0.002249
 C        -1.460646         1.132610        -0.880988
 O        -1.615151         2.404311        -1.471446
 C        -2.738568         2.967805        -0.796305
 C        -2.658494         2.241112         0.488696
 C        -1.181182         2.410312         1.079944
 H         1.164820         1.173742         0.590741
 H        -1.582239        -0.886052         0.663698
 H        -2.112839         0.111396         2.101720
 H        -3.707983         0.464133        -0.300220
 H        -1.098032         0.456652        -1.674109
 H        -2.680667         4.071339        -0.889654
 H        -3.768366         2.696347        -1.235926
 H        -3.514225         2.576999         1.183101
 H        -0.501808         3.173092         0.735324
 H        -1.214499         2.557153         2.160355
