19
Iteration:  4109charge 0 multiplicity 1
 O         0.571117         0.686146         0.578465
 C        -0.758061         0.956360         0.499686
 C        -1.802382         0.001671         0.957900
 C        -2.822988         0.827291         0.081527
 C        -1.624775         1.023719        -0.872718
 O        -1.576953         2.281306        -1.586651
 C        -2.541672         3.059823        -0.795028
 C        -2.719102         2.353894         0.599297
 C        -1.220389         2.223146         1.199885
 H         1.202259         1.435758         0.382631
 H        -1.632756        -0.954761         0.381274
 H        -1.904335        -0.214195         2.034438
 H        -3.767950         0.333472        -0.259217
 H        -1.278567         0.241151        -1.596279
 H        -2.099045         4.093226        -0.860210
 H        -3.671156         3.163605        -1.295640
 H        -3.599600         2.588852         1.330019
 H        -0.722608         3.120409         0.858684
 H        -1.375643         2.178172         2.382590
