19
Iteration:  4002
 O         0.581066         0.599785         0.618422
 C        -0.759949         0.951990         0.437649
 C        -1.889979         0.022533         1.006341
 C        -2.727123         0.846185         0.039357
 C        -1.465652         1.021663        -0.942884
 O        -1.665602         2.319945        -1.520167
 C        -2.619469         3.026768        -0.759245
 C        -2.671528         2.284879         0.575479
 C        -1.247332         2.288210         1.171633
 H         1.064017         1.455934         0.375409
 H        -1.703987        -1.019779         0.592348
 H        -2.272730        -0.124521         2.029567
 H        -3.765080         0.541795        -0.322170
 H        -1.095369         0.326347        -1.718449
 H        -2.316156         4.091755        -0.648145
 H        -3.560947         2.955417        -1.169094
 H        -3.407930         2.806833         1.269979
 H        -0.677654         3.206216         0.695001
 H        -1.155277         2.547023         2.258981
