19
Iteration:  4249
 O         0.584377         0.666251         0.559029
 C        -0.706878         0.998175         0.453944
 C        -1.916949        -0.036381         0.973622
 C        -2.741837         0.785183         0.073202
 C        -1.579584         1.005207        -0.910277
 O        -1.633731         2.272326        -1.571198
 C        -2.500074         3.096748        -0.674757
 C        -2.687005         2.294747         0.547824
 C        -1.302486         2.317499         1.160789
 H         1.163026         1.473125         0.591668
 H        -1.508373        -1.029688         0.657756
 H        -1.992125        -0.182884         2.055773
 H        -3.766896         0.498463        -0.227932
 H        -1.416197         0.146434        -1.654439
 H        -2.055804         4.147042        -0.686356
 H        -3.514352         3.196397        -1.296364
 H        -3.624958         2.583690         1.186444
 H        -0.774706         3.340808         1.096636
 H        -1.318323         2.088649         2.248863
