19
Iteration:  3079charge 0 multiplicity 1
 O         0.632722         0.632540         0.544747
 C        -0.743699         0.988742         0.499119
 C        -1.813992        -0.020671         0.955413
 C        -2.769185         0.754762         0.044250
 C        -1.572440         1.029138        -0.867136
 O        -1.670061         2.349469        -1.581945
 C        -2.677358         3.130294        -0.833931
 C        -2.726387         2.380875         0.593447
 C        -1.183728         2.169269         1.283804
 H         1.181164         1.378300         0.717982
 H        -1.548539        -1.062740         0.530348
 H        -1.997416        -0.130123         2.054337
 H        -3.723972         0.311316        -0.315227
 H        -1.294597         0.319084        -1.583601
 H        -2.242262         4.180240        -0.707541
 H        -3.627184         3.125362        -1.385757
 H        -3.574598         2.596824         1.170057
 H        -0.511768         3.089289         0.922401
 H        -1.040906         2.107889         2.363186
