19
Iteration:  3919
 O         0.625045         0.610634         0.626146
 C        -0.755106         0.990229         0.470467
 C        -1.852117        -0.025040         1.003867
 C        -2.757055         0.815946         0.026179
 C        -1.527595         1.015092        -0.943449
 O        -1.661682         2.306338        -1.584320
 C        -2.586319         3.081501        -0.701914
 C        -2.698192         2.312321         0.549759
 C        -1.249876         2.303808         1.180404
 H         1.027757         1.373755         0.227135
 H        -1.841184        -0.967594         0.519848
 H        -2.060284        -0.026444         2.088006
 H        -3.796460         0.421313        -0.065575
 H        -1.079136         0.301770        -1.624230
 H        -2.301520         4.123740        -0.590848
 H        -3.521903         3.110501        -1.333288
 H        -3.484544         2.646869         1.181998
 H        -0.561128         3.004065         0.935600
 H        -1.494089         2.227611         2.241459
