19
Iteration:  4119charge 0 multiplicity 1
 O         0.591648         0.652169         0.599586
 C        -0.789133         0.987725         0.449129
 C        -1.799247        -0.035359         0.904495
 C        -2.752987         0.831327         0.103710
 C        -1.603130         1.055162        -0.883854
 O        -1.637039         2.262118        -1.509873
 C        -2.524848         3.070922        -0.786675
 C        -2.659464         2.291239         0.544498
 C        -1.301731         2.294154         1.207396
 H         0.997474         1.498282         0.281302
 H        -1.664260        -1.076044         0.525485
 H        -2.176411        -0.052951         1.923341
 H        -3.796915         0.524897        -0.059625
 H        -1.380287         0.169272        -1.555101
 H        -2.195972         4.127363        -0.826917
 H        -3.478077         2.899908        -1.390557
 H        -3.500099         2.843528         1.127594
 H        -0.659010         3.193204         0.988655
 H        -1.069000         2.115084         2.361258
