19
Iteration:  4271charge 0 multiplicity 1
 O         0.589190         0.669134         0.569152
 C        -0.785169         0.927392         0.553256
 C        -1.789249        -0.061518         0.945080
 C        -2.794878         0.836293         0.038178
 C        -1.589701         1.075441        -0.811437
 O        -1.653800         2.286759        -1.555389
 C        -2.547559         3.084039        -0.795762
 C        -2.702754         2.330230         0.522449
 C        -1.249563         2.238867         1.210276
 H         0.974913         1.463431         0.203747
 H        -1.691298        -1.120290         0.569781
 H        -1.887357        -0.100700         2.053274
 H        -3.734348         0.387406        -0.335747
 H        -1.093827         0.364506        -1.536772
 H        -2.139356         4.149080        -0.596532
 H        -3.457518         3.299381        -1.562107
 H        -3.571900         2.702401         1.207505
 H        -0.610287         3.121222         0.848151
 H        -1.068873         2.083390         2.259969
