19
Iteration:  2856
 O         0.652664         0.710920         0.640817
 C        -0.707112         1.035805         0.459234
 C        -1.825715         0.034110         0.929780
 C        -2.805228         0.848265         0.116631
 C        -1.518224         1.082023        -0.865678
 O        -1.692260         2.327717        -1.597511
 C        -2.595524         2.960339        -0.727239
 C        -2.677284         2.259034         0.552295
 C        -1.294360         2.253651         1.126069
 H         0.771017        -0.263905         0.487414
 H        -1.755104        -0.929306         0.382641
 H        -2.148520        -0.065000         1.966681
 H        -3.708863         0.394881        -0.249861
 H        -1.194179         0.374954        -1.652490
 H        -2.306629         4.009545        -0.441651
 H        -3.522738         3.203785        -1.224301
 H        -3.389948         2.659448         1.224552
 H        -0.643624         3.100803         0.774709
 H        -1.200466         2.044965         2.220058
