19
Iteration:  2908
 O         0.597163         0.750419         0.437782
 C        -0.744139         0.996135         0.478044
 C        -1.825852        -0.047744         0.928327
 C        -2.845969         0.852774         0.023763
 C        -1.504355         1.010071        -0.800822
 O        -1.549958         2.228557        -1.542941
 C        -2.643282         3.131434        -0.683940
 C        -2.697690         2.301814         0.596099
 C        -1.284404         2.260823         1.181324
 H         1.058825         0.635535         1.339517
 H        -1.567127        -1.059425         0.542069
 H        -2.045800        -0.074699         1.933391
 H        -3.733907         0.618829        -0.577698
 H        -1.366757         0.107670        -1.568292
 H        -2.282133         4.110286        -0.800027
 H        -3.630810         3.020609        -1.134153
 H        -3.543788         2.505666         1.383955
 H        -0.764087         3.132459         0.859268
 H        -1.144605         2.097990         2.296992
