19
Iteration:  1749
 O         0.559266         0.660132         0.586046
 C        -0.772531         1.057604         0.407870
 C        -1.866306        -0.087853         0.977466
 C        -2.755863         0.818241         0.114932
 C        -1.535561         1.087276        -0.920810
 O        -1.640436         2.314492        -1.583361
 C        -2.628751         3.051873        -0.715009
 C        -2.669773         2.269480         0.562581
 C        -1.189141         2.290775         1.108800
 H         0.620935         0.733794         1.573844
 H        -1.517387        -0.954142         0.514834
 H        -1.899153        -0.237905         2.096780
 H        -3.740523         0.446908        -0.207792
 H        -1.060055         0.312097        -1.538266
 H        -2.309315         4.095612        -0.697600
 H        -3.511757         2.991481        -1.202181
 H        -3.467841         2.633064         1.134656
 H        -0.529759         3.243116         0.921861
 H        -1.090039         2.113406         2.194896
