19
Iteration:  3952charge 0 multiplicity 1
 O         0.643289         0.669088         0.560564
 C        -0.804091         0.990843         0.519405
 C        -1.829228        -0.027956         0.907111
 C        -2.798366         0.871940         0.035748
 C        -1.552265         1.013500        -0.872943
 O        -1.603532         2.221901        -1.588302
 C        -2.542358         3.080683        -0.728301
 C        -2.757953         2.325317         0.592754
 C        -1.283382         2.290842         1.205807
 H         1.150994         1.448565         0.292547
 H        -1.808006        -0.962094         0.409528
 H        -1.842806        -0.209796         1.992850
 H        -3.842257         0.592050        -0.108592
 H        -1.273354         0.154628        -1.464698
 H        -2.121592         4.085328        -0.660570
 H        -3.573778         3.023101        -1.265149
 H        -3.488002         2.710292         1.258140
 H        -0.554239         2.979227         1.063327
 H        -1.287360         2.195276         2.281952
