19
Iteration:  4057charge 0 multiplicity 1
 O         0.562607         0.583594         0.654598
 C        -0.741874         0.978782         0.419582
 C        -1.823952        -0.049809         0.979255
 C        -2.763470         0.828875         0.068553
 C        -1.539630         1.066043        -0.869848
 O        -1.630949         2.301074        -1.603831
 C        -2.645521         3.074989        -0.731551
 C        -2.692444         2.266520         0.537270
 C        -1.171339         2.346852         1.156950
 H         1.148530         1.336354         0.375486
 H        -1.493735        -1.062595         0.643186
 H        -2.223345         0.024977         1.999905
 H        -3.815003         0.621733        -0.321240
 H        -1.258019         0.257638        -1.537794
 H        -2.299287         4.127986        -0.562166
 H        -3.634695         3.131620        -1.147548
 H        -3.539129         2.597101         1.198902
 H        -0.763109         3.321304         0.863008
 H        -1.303755         2.153024         2.225562
