19
Iteration:  3104
 O         0.595118         0.587577         0.625947
 C        -0.729159         0.992297         0.469090
 C        -1.874574         0.000659         0.863793
 C        -2.711520         0.789374         0.023984
 C        -1.503130         1.029283        -0.920166
 O        -1.692363         2.277071        -1.573768
 C        -2.682728         3.039424        -0.611777
 C        -2.645786         2.372015         0.620372
 C        -1.229447         2.342908         1.095963
 H         1.180571         1.335484         0.740725
 H        -1.488206        -0.966926         0.403186
 H        -2.020191        -0.137344         1.895676
 H        -3.684967         0.423941        -0.271162
 H        -1.329696         0.291889        -1.718968
 H        -2.307076         3.990608        -0.330396
 H        -3.673202         3.074127        -1.252452
 H        -3.472850         2.559031         1.370718
 H        -0.721096         3.325433         0.850545
 H        -1.228519         2.290706         2.252844
