19
Iteration:   380charge 0 multiplicity 1
 O         0.554416         0.511897         0.690090
 C        -0.735416         0.959919         0.487067
 C        -1.777494         0.004984         1.024580
 C        -2.729311         0.822680         0.039437
 C        -1.475217         1.036815        -0.905212
 O        -1.623005         2.414632        -1.510043
 C        -2.748679         3.065995        -0.857563
 C        -2.706938         2.377707         0.575711
 C        -1.251455         2.247613         1.072588
 H         1.228261         1.060422         0.288805
 H        -1.670242        -1.141581         0.962506
 H        -2.063197         0.300454         2.022789
 H        -3.587893         0.363276        -0.391889
 H        -1.107482         0.287990        -1.575106
 H        -2.484946         4.197808        -0.744695
 H        -3.643000         2.799147        -1.488410
 H        -3.399531         2.600509         1.360203
 H        -0.794901         3.213132         0.571154
 H        -1.103226         2.122285         2.152685
