19
Iteration:  2599charge 0 multiplicity 1
 O         0.604717         0.721186         0.543339
 C        -0.760456         1.048588         0.443930
 C        -1.809435        -0.094868         1.049670
 C        -2.803772         0.763125         0.019865
 C        -1.673437         1.032811        -0.862655
 O        -1.570303         2.229666        -1.587259
 C        -2.587760         3.130924        -0.753505
 C        -2.663835         2.302907         0.545704
 C        -1.273059         2.271550         1.237988
 H         1.190769         1.543135         0.407702
 H        -1.668057        -1.063379         0.816895
 H        -2.031484        -0.085711         2.077682
 H        -3.742670         0.539716        -0.449204
 H        -1.311674         0.128286        -1.455309
 H        -2.167140         4.083320        -0.530731
 H        -3.426496         3.134649        -1.530139
 H        -3.542303         2.624019         1.209203
 H        -0.584511         3.120551         0.955122
 H        -1.223016         2.115789         2.299784
