19
Iteration:  1279
 O         0.638746         0.713197         0.694417
 C        -0.760352         0.837565         0.526473
 C        -1.907587        -0.098401         0.959023
 C        -2.742787         0.823527         0.045874
 C        -1.512943         1.066789        -0.867407
 O        -1.598740         2.389080        -1.553164
 C        -2.693848         3.073247        -0.806521
 C        -2.648110         2.297077         0.512257
 C        -1.242698         2.316015         1.149652
 H         0.943423         0.134701         0.010385
 H        -1.819083        -1.033112         0.508270
 H        -2.112834        -0.013059         2.058394
 H        -3.786129         0.558684        -0.317239
 H        -1.412068         0.393496        -1.729467
 H        -2.263258         4.057454        -0.760905
 H        -3.740525         3.022456        -1.233650
 H        -3.397522         2.703116         1.145219
 H        -0.627733         3.200532         0.749650
 H        -1.135446         2.371411         2.357218
