19
Iteration:  4182
 O         0.594198         0.535773         0.683080
 C        -0.786059         1.024881         0.481477
 C        -1.792695         0.048763         0.927186
 C        -2.743986         0.815151         0.048141
 C        -1.525282         1.063968        -0.883542
 O        -1.605986         2.289375        -1.541179
 C        -2.663372         3.130922        -0.767674
 C        -2.698371         2.300316         0.607080
 C        -1.256861         2.276321         1.068254
 H         1.135276         1.248264         0.291652
 H        -1.624026        -0.958680         0.478911
 H        -2.148483        -0.154463         1.958939
 H        -3.668799         0.311382        -0.202651
 H        -1.296183         0.227630        -1.653962
 H        -2.569100         4.241116        -0.637509
 H        -3.652365         2.848498        -1.230514
 H        -3.554695         2.484012         1.314068
 H        -0.729904         3.291610         0.832584
 H        -0.917657         2.150156         2.083978
