19
Iteration:  2548charge 0 multiplicity 1
 O         0.576907         0.590416         0.717440
 C        -0.747672         0.959246         0.564333
 C        -1.753534         0.017090         0.893324
 C        -2.710107         0.808073        -0.028040
 C        -1.558913         1.040833        -0.909341
 O        -1.748433         2.320978        -1.575753
 C        -2.637864         3.013644        -0.787066
 C        -2.632142         2.390409         0.634823
 C        -1.246008         2.312663         1.142396
 H         0.933602         1.314318         0.169989
 H        -1.468699        -1.125540         0.673711
 H        -1.961659        -0.052549         1.977972
 H        -3.657850         0.343441        -0.460108
 H        -1.314926         0.190207        -1.625508
 H        -2.437357         4.088267        -0.828367
 H        -3.639532         2.888528        -1.259544
 H        -3.479150         2.682261         1.284539
 H        -0.739903         3.127760         0.694169
 H        -0.874353         2.274268         2.260423
