19
Iteration:  4981
 O         0.622489         0.601648         0.631774
 C        -0.733852         0.956440         0.445468
 C        -1.883090         0.012245         0.938960
 C        -2.830205         0.828887         0.071098
 C        -1.546655         1.045128        -0.896982
 O        -1.615580         2.284948        -1.521272
 C        -2.614783         3.112405        -0.738811
 C        -2.660402         2.308987         0.520130
 C        -1.204615         2.284964         1.162973
 H         1.074627         1.473049         0.446600
 H        -1.563470        -0.996901         0.486559
 H        -2.418590        -0.169440         1.889175
 H        -3.791712         0.514046        -0.258004
 H        -1.198142         0.283681        -1.595019
 H        -2.403481         4.162213        -0.807645
 H        -3.617311         3.121485        -1.258983
 H        -3.469208         2.490060         1.269863
 H        -0.510127         3.072999         1.008599
 H        -1.342182         2.088809         2.291643
