19
Iteration:  1504charge 0 multiplicity 1
 O         0.577465         0.637287         0.621187
 C        -0.757635         1.083313         0.532898
 C        -1.889429        -0.022957         0.977611
 C        -2.757023         0.780293         0.038092
 C        -1.518922         1.023766        -0.940634
 O        -1.730196         2.315470        -1.625429
 C        -2.568193         3.115087        -0.828528
 C        -2.629243         2.231624         0.531146
 C        -1.202482         2.246978         1.251311
 H         0.916533         1.331125         1.270566
 H        -1.552103        -1.008068         0.631810
 H        -2.155742        -0.071617         1.960783
 H        -3.785056         0.485517        -0.359527
 H        -1.292835         0.235311        -1.642798
 H        -1.939716         4.012070        -0.472522
 H        -3.602652         3.233160        -1.304342
 H        -3.432157         2.611236         1.259989
 H        -0.567903         3.136610         0.899771
 H        -1.089388         2.108247         2.346682
