19
Iteration:  4408charge 0 multiplicity 1
 O         0.587497         0.683471         0.604336
 C        -0.786286         0.976526         0.440464
 C        -1.847921        -0.049554         0.916121
 C        -2.803957         0.837589         0.084082
 C        -1.481401         1.034610        -0.875254
 O        -1.622835         2.207772        -1.551665
 C        -2.547785         3.111706        -0.732559
 C        -2.708357         2.314356         0.553629
 C        -1.281776         2.341010         1.150974
 H         1.210713         1.397399         0.267441
 H        -1.680612        -1.091131         0.556223
 H        -2.085171        -0.165225         1.990830
 H        -3.829138         0.544721        -0.350756
 H        -1.346465         0.088824        -1.539146
 H        -2.219072         4.089013        -0.354588
 H        -3.540252         3.336350        -1.339940
 H        -3.386586         2.455485         1.349061
 H        -0.551116         3.114211         1.090893
 H        -1.333360         1.991776         2.308192
