19
Iteration:  1805
 O         0.594751         0.684506         0.549940
 C        -0.752285         1.000085         0.493958
 C        -1.810860         0.014175         0.940815
 C        -2.756900         0.841352         0.034206
 C        -1.568059         1.050497        -0.885331
 O        -1.666937         2.353882        -1.609744
 C        -2.618449         3.023403        -0.774786
 C        -2.705588         2.279484         0.612927
 C        -1.204515         2.236926         1.185389
 H         0.896828         0.186697         1.366744
 H        -1.707827        -1.052880         0.764880
 H        -1.928885         0.151498         2.044159
 H        -3.623532         0.361489        -0.330536
 H        -1.108792         0.169879        -1.390149
 H        -2.301994         4.075584        -0.700344
 H        -3.607504         2.958084        -1.216270
 H        -3.449003         2.584004         1.296225
 H        -0.529522         3.178236         0.810214
 H        -1.302403         2.246902         2.287861
