19
Iteration:  1434charge 0 multiplicity 1
 O         0.553314         0.635653         0.608865
 C        -0.745759         0.964029         0.444409
 C        -1.858581         0.012734         0.963822
 C        -2.754190         0.884125        -0.016799
 C        -1.531772         1.048722        -0.838984
 O        -1.542327         2.333716        -1.492478
 C        -2.621729         3.012260        -0.813095
 C        -2.740871         2.276179         0.627080
 C        -1.245555         2.286027         1.177974
 H         1.103147         0.684587        -0.206819
 H        -1.460321        -1.041645         0.850235
 H        -2.339563        -0.002190         2.038604
 H        -3.697744         0.511867        -0.369849
 H        -1.127869         0.301981        -1.608734
 H        -2.384388         4.050506        -0.657484
 H        -3.522855         2.944197        -1.392419
 H        -3.662478         2.611410         1.111861
 H        -0.769844         3.171401         0.742545
 H        -1.146211         2.268284         2.376079
