19
Iteration:  3464charge 0 multiplicity 1
 O         0.552465         0.627295         0.556317
 C        -0.760152         1.090040         0.517841
 C        -1.892040        -0.045939         1.006754
 C        -2.746206         0.776254         0.066711
 C        -1.497887         1.053999        -0.889861
 O        -1.657882         2.358344        -1.575157
 C        -2.624952         3.060832        -0.731782
 C        -2.701483         2.192097         0.527051
 C        -1.167692         2.325967         1.189879
 H         1.189058         1.084687        -0.066041
 H        -1.685324        -1.047585         0.645842
 H        -2.138604        -0.229178         2.102671
 H        -3.606448         0.244084        -0.249192
 H        -1.140792         0.270639        -1.587146
 H        -2.190184         4.115897        -0.498788
 H        -3.604790         3.215965        -1.277846
 H        -3.566181         2.527391         1.177968
 H        -0.570637         3.202763         0.829435
 H        -1.133973         2.224810         2.259298
