19
Iteration:  3867
 O         0.611556         0.552727         0.648088
 C        -0.753768         0.985865         0.566326
 C        -1.838491        -0.051022         0.956384
 C        -2.724431         0.857413         0.022043
 C        -1.543169         1.082505        -0.892054
 O        -1.578947         2.360794        -1.615666
 C        -2.756540         3.090258        -0.768491
 C        -2.665384         2.264222         0.575677
 C        -1.218851         2.278362         1.143373
 H         1.017930         1.389709         0.385341
 H        -1.564741        -1.022492         0.578672
 H        -2.053905        -0.099079         2.051038
 H        -3.700401         0.619021        -0.202456
 H        -1.599778         0.206492        -1.549690
 H        -2.488553         4.109592        -0.841231
 H        -3.730306         2.902283        -1.150466
 H        -3.429970         2.637949         1.280575
 H        -0.568735         3.103182         0.623714
 H        -1.206961         2.259895         2.340042
