19
Iteration:  3531charge 0 multiplicity 1
 O         0.566919         0.654059         0.548460
 C        -0.780928         0.931059         0.579676
 C        -1.799663        -0.089923         0.980248
 C        -2.686941         0.780381         0.065588
 C        -1.548467         1.040984        -0.889623
 O        -1.681932         2.324175        -1.593361
 C        -2.612041         3.129463        -0.736461
 C        -2.721710         2.375005         0.516250
 C        -1.219748         2.229751         1.179606
 H         1.010907         1.496748         0.547024
 H        -1.691922        -1.070223         0.566342
 H        -1.957718        -0.183635         2.124298
 H        -3.618090         0.427377        -0.278598
 H        -1.105221         0.295600        -1.659917
 H        -2.286428         4.215579        -0.716197
 H        -3.591804         3.184049        -1.285472
 H        -3.504559         2.709750         1.311226
 H        -0.485442         2.986625         0.735948
 H        -1.314500         2.338773         2.301673
