19
Iteration:   472
 O         0.584693         0.660942         0.513852
 C        -0.762658         1.017072         0.488185
 C        -1.819323        -0.027873         1.002853
 C        -2.736507         0.866720         0.067482
 C        -1.597547         0.988885        -0.861003
 O        -1.590964         2.252021        -1.538534
 C        -2.494652         3.107849        -0.765769
 C        -2.787699         2.256808         0.549458
 C        -1.316512         2.307729         1.184494
 H         1.181510         1.450425         0.528989
 H        -1.621084        -1.012736         0.558433
 H        -2.095761        -0.208832         2.127494
 H        -3.692805         0.372756        -0.324494
 H        -1.140377         0.189008        -1.545849
 H        -2.058251         4.057319        -0.608881
 H        -3.414639         3.192577        -1.298562
 H        -3.621845         2.722483         1.050521
 H        -0.789733         3.174440         0.901101
 H        -1.285300         2.063737         2.289140
