19
Iteration:  4706
 O         0.585325         0.644638         0.581646
 C        -0.785224         1.013516         0.492458
 C        -1.859228        -0.067720         0.965785
 C        -2.779699         0.800790         0.010753
 C        -1.621824         1.022605        -0.879752
 O        -1.606545         2.262018        -1.567582
 C        -2.527393         3.104499        -0.712607
 C        -2.647888         2.349485         0.556037
 C        -1.288921         2.292150         1.208985
 H         1.105189         1.319627         0.089869
 H        -1.500350        -0.944012         0.417838
 H        -1.953167        -0.268146         2.037120
 H        -3.677614         0.420883        -0.352225
 H        -1.392356         0.188458        -1.501229
 H        -2.058854         4.020780        -0.545856
 H        -3.367626         3.338402        -1.373075
 H        -3.441145         2.633802         1.177678
 H        -0.698145         3.149317         1.000795
 H        -1.373170         2.264393         2.398420
