19
Iteration:  3132charge 0 multiplicity 1
 O         0.604897         0.590572         0.663321
 C        -0.715886         0.919393         0.509753
 C        -1.800564        -0.102975         0.979540
 C        -2.729222         0.800273         0.076237
 C        -1.573980         1.145849        -0.900631
 O        -1.709066         2.410709        -1.542175
 C        -2.675162         3.070229        -0.777644
 C        -2.637135         2.281161         0.543320
 C        -1.216135         2.252641         1.094641
 H         1.100947         1.262014         0.233297
 H        -1.550767        -1.103465         0.553644
 H        -1.859042         0.054415         2.093882
 H        -3.744489         0.479260        -0.256885
 H        -1.435633         0.469186        -1.752832
 H        -2.511799         4.179960        -0.453513
 H        -3.566062         3.135534        -1.355914
 H        -3.430877         2.480530         1.219387
 H        -0.676946         3.116576         0.618375
 H        -1.297395         2.320051         2.137713
