19
Iteration:  4025
 O         0.626861         0.547636         0.699492
 C        -0.701674         0.974385         0.502643
 C        -1.793115        -0.038336         0.924085
 C        -2.823358         0.866088         0.019260
 C        -1.582918         1.049502        -0.849605
 O        -1.612782         2.303962        -1.557739
 C        -2.754027         3.100688        -0.776642
 C        -2.708539         2.338748         0.542697
 C        -1.139038         2.284509         1.118319
 H         1.073184         1.249875         0.255157
 H        -1.401995        -1.055350         0.652398
 H        -2.173541        -0.178455         1.971726
 H        -3.833298         0.504259        -0.405515
 H        -1.302324         0.287850        -1.565883
 H        -2.398293         4.147657        -0.683558
 H        -3.661342         3.007823        -1.220141
 H        -3.630668         2.546875         1.150414
 H        -0.585680         3.351805         0.875780
 H        -1.093068         2.417096         2.209447
