19
Iteration:  3045
 O         0.638935         0.704020         0.499879
 C        -0.741174         0.987908         0.450553
 C        -1.882716        -0.028943         0.927337
 C        -2.757629         0.887881         0.072150
 C        -1.587582         1.001689        -0.867129
 O        -1.595832         2.311214        -1.518610
 C        -2.516785         3.009825        -0.742924
 C        -2.774705         2.255233         0.596241
 C        -1.316788         2.271998         1.274023
 H         1.164689         1.310047        -0.005855
 H        -1.638711        -1.044547         0.474264
 H        -1.936401        -0.123019         2.082938
 H        -3.727679         0.504783        -0.309915
 H        -1.377092         0.227358        -1.598501
 H        -2.160917         4.114005        -0.506457
 H        -3.498469         3.125359        -1.235484
 H        -3.624906         2.378690         1.208756
 H        -0.870899         3.229883         0.636109
 H        -0.907097         2.223375         2.306726
