19
Iteration:  1096charge 0 multiplicity 1
 O         0.717995         0.873675         0.639126
 C        -0.767078         0.976624         0.445128
 C        -1.951040        -0.119372         0.956760
 C        -2.814398         0.818711         0.018752
 C        -1.580300         1.059576        -0.889967
 O        -1.643437         2.251466        -1.578703
 C        -2.488266         3.075949        -0.752725
 C        -2.681895         2.329667         0.514913
 C        -1.274439         2.204187         1.242398
 H         0.811648        -0.102902         0.653864
 H        -1.745258        -1.187771         0.476447
 H        -2.049869        -0.099865         2.034759
 H        -3.841780         0.556151        -0.270056
 H        -1.470071         0.189630        -1.635590
 H        -1.989109         4.060908        -0.602799
 H        -3.458395         3.264632        -1.170446
 H        -3.441501         2.725277         1.215201
 H        -0.879142         3.109233         0.910902
 H        -1.251191         2.165685         2.269072
