19
Iteration:  2709charge 0 multiplicity 1
 O         0.626628         0.608492         0.679396
 C        -0.758257         0.884975         0.548832
 C        -1.756842        -0.080990         0.978980
 C        -2.786865         0.815193         0.066347
 C        -1.561529         1.086997        -0.906983
 O        -1.711314         2.370713        -1.644044
 C        -2.631133         3.077008        -0.762738
 C        -2.639222         2.307275         0.563633
 C        -1.249105         2.303508         1.101916
 H         1.100791         1.409427         0.789358
 H        -1.638970        -1.090869         0.731866
 H        -1.934916        -0.034525         2.052417
 H        -3.791686         0.596393        -0.384435
 H        -1.350010         0.187269        -1.662676
 H        -2.327192         4.106504        -0.682542
 H        -3.557945         2.957953        -1.265681
 H        -3.477077         2.734675         1.265660
 H        -0.565525         3.031173         0.593882
 H        -1.323308         2.520024         2.189322
