19
Iteration:   207
 O         0.620859         0.605694         0.644774
 C        -0.756287         0.954109         0.610767
 C        -1.936279        -0.096065         0.916877
 C        -2.732427         0.834045         0.047595
 C        -1.493767         1.112137        -0.817000
 O        -1.630118         2.412241        -1.551870
 C        -2.759775         3.002724        -0.764211
 C        -2.662912         2.293965         0.533076
 C        -1.129079         2.326173         0.952705
 H         0.807398         0.304829         1.567422
 H        -1.413791        -1.046723         0.395566
 H        -2.230691        -0.331874         1.975593
 H        -3.749105         0.726222        -0.251060
 H        -1.081913         0.493837        -1.617563
 H        -2.747601         4.049363        -0.577416
 H        -3.859211         3.011221        -1.221565
 H        -3.301603         2.606398         1.296111
 H        -0.510923         3.104758         0.425203
 H        -0.932168         2.490572         2.034219
