19
Iteration:  3929charge 0 multiplicity 1
 O         0.574949         0.666301         0.595689
 C        -0.807841         0.964367         0.537857
 C        -1.879838        -0.058941         0.979998
 C        -2.740132         0.770994         0.083330
 C        -1.502225         1.055034        -0.924286
 O        -1.692832         2.329955        -1.546282
 C        -2.555410         3.074410        -0.820584
 C        -2.642707         2.321558         0.509413
 C        -1.236881         2.273204         1.209540
 H         1.123403         1.368140         0.223113
 H        -1.597564        -1.047560         0.673429
 H        -1.995781        -0.129113         2.075864
 H        -3.834742         0.509404        -0.179088
 H        -1.323482         0.351576        -1.720406
 H        -2.088490         4.079150        -0.739913
 H        -3.678365         3.116599        -1.173725
 H        -3.452000         2.717858         1.067661
 H        -0.648586         3.122111         1.160186
 H        -1.056813         1.979871         2.192344
