19
Iteration:  4051charge 0 multiplicity 1
 O         0.540436         0.574403         0.668408
 C        -0.708279         0.995012         0.434027
 C        -1.838051        -0.076884         0.951255
 C        -2.730473         0.835059         0.108568
 C        -1.534389         1.096855        -0.865166
 O        -1.654975         2.320250        -1.582299
 C        -2.622261         3.051339        -0.768832
 C        -2.663971         2.299692         0.560439
 C        -1.212654         2.324140         1.091538
 H         1.108183         1.256813         0.348255
 H        -1.708226        -1.109953         0.674306
 H        -2.098795        -0.054130         2.035291
 H        -3.665566         0.482574        -0.238557
 H        -1.283930         0.346602        -1.633909
 H        -2.269681         4.051704        -0.600642
 H        -3.720868         3.077310        -1.131752
 H        -3.567626         2.464997         1.119263
 H        -0.729859         3.398619         0.999994
 H        -1.323989         2.281700         2.180566
