19
Iteration:   574charge 0 multiplicity 1
 O         0.663384         0.737225         0.550046
 C        -0.734714         1.009186         0.488631
 C        -1.911590        -0.023937         0.985477
 C        -2.840644         0.853415         0.014608
 C        -1.507846         0.978111        -0.838244
 O        -1.655071         2.198592        -1.580949
 C        -2.507587         3.070861        -0.729479
 C        -2.692095         2.365125         0.570851
 C        -1.332504         2.222544         1.185380
 H         1.287222         1.396833         0.269431
 H        -1.705822        -1.059838         0.526097
 H        -2.099573         0.106837         2.035029
 H        -3.760125         0.503019        -0.320848
 H        -1.223017         0.204772        -1.512184
 H        -2.064936         4.045096        -0.634303
 H        -3.432663         3.153538        -1.221872
 H        -3.686936         2.714873         1.142807
 H        -0.672121         3.097320         1.150723
 H        -1.267823         1.975083         2.204449
