19
Iteration:  4776
 O         0.556327         0.570419         0.682731
 C        -0.773378         1.005979         0.490656
 C        -1.851179        -0.065762         0.960184
 C        -2.769092         0.815261         0.112272
 C        -1.583349         1.095009        -0.883648
 O        -1.606298         2.375999        -1.572821
 C        -2.607493         3.045558        -0.726213
 C        -2.682036         2.277971         0.539887
 C        -1.178705         2.251633         1.038096
 H         1.136015         1.313689         0.440999
 H        -1.897508        -1.059008         0.436180
 H        -2.032411        -0.128047         2.062724
 H        -3.676301         0.479407        -0.484491
 H        -1.170969         0.404769        -1.682152
 H        -2.399599         4.183435        -0.531464
 H        -3.687492         3.125228        -1.201809
 H        -3.412447         2.819924         1.292903
 H        -0.420325         3.080222         0.698120
 H        -1.113732         2.341313         2.112797
