19
Iteration:   904charge 0 multiplicity 1
 O         0.621939         0.902445         0.442687
 C        -0.782431         0.995549         0.457925
 C        -1.923381        -0.106534         0.911483
 C        -2.793535         0.850269         0.110602
 C        -1.566304         0.938933        -0.841162
 O        -1.534543         2.206728        -1.560729
 C        -2.454955         3.092345        -0.713056
 C        -2.729392         2.312075         0.580230
 C        -1.356458         2.259532         1.212708
 H         0.831442         0.220544         1.150188
 H        -1.643079        -1.146635         0.487571
 H        -2.337235        -0.318028         2.009214
 H        -3.683369         0.445418        -0.404984
 H        -1.454719         0.104413        -1.561326
 H        -1.820996         3.941326        -0.441559
 H        -3.328610         3.395109        -1.271151
 H        -3.510122         2.812315         1.303806
 H        -0.732852         3.173204         0.945222
 H        -1.254551         2.344571         2.310958
