19
Iteration:  3611charge 0 multiplicity 1
 O         0.748504         0.585848         0.579977
 C        -0.783218         0.927083         0.515320
 C        -1.848078        -0.041920         0.951180
 C        -2.742982         0.888482         0.039581
 C        -1.492695         0.998340        -0.910189
 O        -1.650392         2.281710        -1.526803
 C        -2.618396         3.094335        -0.748247
 C        -2.782136         2.367414         0.600580
 C        -1.336647         2.329196         1.184245
 H         1.045185         1.402115         0.158689
 H        -1.599906        -0.967433         0.385697
 H        -2.028126        -0.101920         1.966288
 H        -3.753757         0.464302        -0.381579
 H        -1.387857         0.191705        -1.630955
 H        -2.136694         4.012643        -0.823222
 H        -3.708930         2.963315        -1.169459
 H        -3.536067         2.704069         1.288976
 H        -0.925498         3.148223         0.738245
 H        -1.099969         2.359853         2.305375
