19
Iteration:  2486
 O         0.553758         0.661653         0.523976
 C        -0.770970         1.026244         0.450863
 C        -1.848709         0.001114         0.997198
 C        -2.754212         0.773681         0.085648
 C        -1.507071         0.998429        -0.783619
 O        -1.624802         2.304264        -1.556776
 C        -2.593442         3.087387        -0.839994
 C        -2.653973         2.219323         0.587376
 C        -1.274189         2.318583         1.159328
 H         1.142563         1.429887         0.435159
 H        -1.581944        -1.018988         0.585416
 H        -2.048522        -0.173650         2.097792
 H        -3.787350         0.641402        -0.325045
 H        -1.244273         0.229603        -1.454951
 H        -2.289446         4.162524        -0.536405
 H        -3.595789         2.937178        -1.335273
 H        -3.413838         2.598364         1.236498
 H        -0.786822         3.346891         1.001184
 H        -1.243252         2.108832         2.208429
