19
Iteration:  2861
 O         0.659710         0.715705         0.607343
 C        -0.713055         1.024562         0.471298
 C        -1.824056         0.030863         0.968848
 C        -2.797611         0.843175         0.063232
 C        -1.536156         1.106212        -0.869433
 O        -1.686243         2.298468        -1.586556
 C        -2.570320         2.999902        -0.697886
 C        -2.683595         2.269898         0.548609
 C        -1.300877         2.244950         1.106190
 H         0.692456        -0.266837         0.647943
 H        -1.707166        -0.869041         0.351614
 H        -1.965131        -0.097491         2.130416
 H        -3.652028         0.282380        -0.387174
 H        -1.250794         0.257431        -1.503187
 H        -2.397642         4.103278        -0.464969
 H        -3.564237         3.169360        -1.254034
 H        -3.420768         2.699926         1.300700
 H        -0.638586         3.082806         0.868449
 H        -1.376012         2.004582         2.158224
