19
Iteration:  4139charge 0 multiplicity 1
 O         0.606544         0.646682         0.597481
 C        -0.732930         0.957349         0.487973
 C        -1.890888        -0.026266         0.999142
 C        -2.759259         0.831678         0.030467
 C        -1.529765         1.015845        -0.845431
 O        -1.633648         2.319248        -1.581564
 C        -2.655529         3.069984        -0.737184
 C        -2.715526         2.305535         0.553984
 C        -1.214489         2.290262         1.154111
 H         1.254111         1.191212         0.175804
 H        -1.726772        -0.994399         0.498972
 H        -2.103040        -0.223137         2.061048
 H        -3.671833         0.511619        -0.453466
 H        -1.113028         0.213049        -1.548078
 H        -2.102305         3.992172        -0.818890
 H        -3.533517         3.116564        -1.243503
 H        -3.458363         2.601416         1.349561
 H        -0.638171         3.291968         1.006135
 H        -1.311440         2.327482         2.275645
