19
Iteration:  4885charge 0 multiplicity 1
 O         0.555877         0.660830         0.547470
 C        -0.823020         0.961565         0.514871
 C        -1.877657        -0.062051         0.958348
 C        -2.758268         0.804293         0.055736
 C        -1.573159         1.018509        -0.860845
 O        -1.554921         2.316237        -1.471277
 C        -2.548061         3.025290        -0.758196
 C        -2.670446         2.353842         0.544563
 C        -1.239505         2.300461         1.173457
 H         0.851965         1.390199        -0.069397
 H        -1.536651        -1.004701         0.592320
 H        -2.079702         0.073414         1.995089
 H        -3.722952         0.442859        -0.374606
 H        -1.461950         0.276178        -1.660017
 H        -2.252852         4.093917        -0.707810
 H        -3.446120         3.047393        -1.317194
 H        -3.570319         2.820215         1.046012
 H        -0.501424         3.120136         0.797670
 H        -1.228324         2.097711         2.224649
