19
Iteration:  1554charge 0 multiplicity 1
 O         0.592841         0.778162         0.416680
 C        -0.822636         0.989114         0.564225
 C        -1.865393        -0.063754         0.941721
 C        -2.815081         0.795211         0.040140
 C        -1.605397         1.051040        -0.835216
 O        -1.535141         2.246945        -1.543527
 C        -2.492951         3.073945        -0.786159
 C        -2.707843         2.296757         0.558798
 C        -1.248338         2.280383         1.243582
 H         0.846694         1.045098         1.334684
 H        -1.777289        -1.086041         0.448795
 H        -2.261452        -0.088969         2.065089
 H        -3.721976         0.449171        -0.333229
 H        -1.219645         0.187278        -1.424116
 H        -2.113122         4.069375        -0.761580
 H        -3.420681         2.838785        -1.358269
 H        -3.474702         2.649407         1.218932
 H        -0.688084         3.144792         1.019186
 H        -1.214151         2.138202         2.358590
