19
Iteration:  2530charge 0 multiplicity 1
 O         0.613656         0.600372         0.702977
 C        -0.747264         1.020472         0.458547
 C        -1.871574        -0.033123         0.960746
 C        -2.751937         0.848272         0.105003
 C        -1.497805         1.057310        -0.908436
 O        -1.650532         2.339387        -1.534626
 C        -2.768624         3.040665        -0.749113
 C        -2.665937         2.255818         0.503338
 C        -1.155960         2.314607         1.070258
 H         1.360281         1.158502         0.417738
 H        -1.699227        -1.104064         0.643357
 H        -2.075802        -0.153949         2.088147
 H        -3.751912         0.503520        -0.222368
 H        -1.288440         0.367675        -1.682071
 H        -2.331381         4.095909        -0.824425
 H        -3.716181         2.854468        -1.270822
 H        -3.396407         2.478648         1.255383
 H        -0.599382         3.290437         0.756970
 H        -1.218905         2.241615         2.137272
