19
Iteration:  1408
 O         0.643140         0.731341         0.580664
 C        -0.760760         0.913180         0.506278
 C        -1.922930        -0.029818         0.999679
 C        -2.746881         0.828876         0.023934
 C        -1.503133         0.983881        -0.848883
 O        -1.667391         2.289312        -1.569098
 C        -2.519330         3.139016        -0.757399
 C        -2.639113         2.295416         0.502045
 C        -1.343712         2.279197         1.262920
 H         0.999034         0.479981        -0.298833
 H        -1.625187        -0.992018         0.627393
 H        -2.299153        -0.295891         2.070970
 H        -3.665415         0.364099        -0.435778
 H        -1.181393         0.298301        -1.579034
 H        -2.142441         4.165719        -0.568015
 H        -3.513269         3.292567        -1.243759
 H        -3.451943         2.769354         1.068697
 H        -0.806540         3.188780         0.908802
 H        -1.508419         2.301193         2.279531
