19
Iteration:  2793charge 0 multiplicity 1
 O         0.651371         0.667247         0.617609
 C        -0.750619         1.006506         0.440907
 C        -1.782919        -0.007314         0.997642
 C        -2.768992         0.795286         0.009681
 C        -1.622909         1.012447        -0.896752
 O        -1.548478         2.288791        -1.563293
 C        -2.598105         3.032407        -0.725081
 C        -2.738885         2.329095         0.623950
 C        -1.300533         2.316762         1.194360
 H         1.013258         0.669847        -0.328062
 H        -1.666640        -0.997281         0.522846
 H        -2.291984        -0.043134         2.060237
 H        -3.659304         0.534946        -0.533054
 H        -1.492863         0.176750        -1.493383
 H        -2.283975         4.153642        -0.728791
 H        -3.636405         3.124500        -1.194648
 H        -3.583025         2.535304         1.243253
 H        -0.826084         3.296005         0.878612
 H        -1.271326         2.248174         2.247086
