19
Iteration:  1772
 O         0.675681         0.622000         0.626364
 C        -0.661294         0.965737         0.592486
 C        -1.837933        -0.044039         0.868077
 C        -2.717202         0.881588        -0.020076
 C        -1.603771         1.026056        -0.922124
 O        -1.747383         2.288475        -1.568071
 C        -2.668255         3.086703        -0.726563
 C        -2.701849         2.292895         0.591096
 C        -1.221062         2.345172         1.112774
 H         0.753661         0.398294         1.548616
 H        -1.671075        -1.036359         0.500155
 H        -1.968053        -0.031337         1.974868
 H        -3.630415         0.453453        -0.325930
 H        -1.233692         0.250701        -1.621118
 H        -2.179227         4.041693        -0.732744
 H        -3.548910         3.191832        -1.217058
 H        -3.425137         2.538769         1.312055
 H        -0.508966         3.254040         0.737897
 H        -1.321562         2.539638         2.210172
