19
Iteration:     7charge 0 multiplicity 1
 O         0.639471         0.645240         0.563501
 C        -0.747241         0.972859         0.478482
 C        -1.852743        -0.037519         0.918470
 C        -2.759703         0.833247        -0.015060
 C        -1.539165         1.068822        -0.867602
 O        -1.600545         2.354526        -1.517977
 C        -2.572157         3.070516        -0.733564
 C        -2.706300         2.293696         0.567062
 C        -1.245390         2.232723         1.167165
 H         0.741528         0.793073         1.538632
 H        -1.915688        -1.130401         0.551010
 H        -2.227999        -0.061744         1.953729
 H        -3.783049         0.498636        -0.246573
 H        -1.456467         0.184740        -1.522826
 H        -2.332836         4.160259        -0.767509
 H        -3.555859         3.104685        -1.272745
 H        -3.571607         2.672832         1.137871
 H        -0.805877         3.209346         0.731586
 H        -1.446491         2.179105         2.256640
