19
Iteration:  2882charge 0 multiplicity 1
 O         0.601373         0.747749         0.501275
 C        -0.739796         0.970463         0.489488
 C        -1.774595        -0.099714         0.968350
 C        -2.737411         0.792792         0.055149
 C        -1.545810         0.978244        -0.904851
 O        -1.658419         2.311336        -1.516506
 C        -2.633992         3.104222        -0.814145
 C        -2.687711         2.335739         0.550167
 C        -1.286918         2.318871         1.281781
 H         0.905702        -0.054364         1.007398
 H        -1.636992        -1.138439         0.649044
 H        -2.324750         0.098831         1.966967
 H        -3.770824         0.475184        -0.227189
 H        -1.205675         0.357834        -1.687776
 H        -2.117380         4.152925        -0.676325
 H        -3.551357         3.496861        -1.346422
 H        -3.591099         2.465116         1.162497
 H        -0.638700         3.091024         0.847981
 H        -1.096115         2.125866         2.305526
