19
Iteration:  3663
 O         0.613975         0.689291         0.592489
 C        -0.749367         0.958762         0.488065
 C        -1.814792        -0.089542         0.954582
 C        -2.725762         0.896368         0.046019
 C        -1.598329         1.036811        -0.856111
 O        -1.657579         2.247739        -1.547174
 C        -2.564102         3.070572        -0.781568
 C        -2.705519         2.292218         0.537423
 C        -1.275990         2.300101         1.190233
 H         1.127295         1.444168         0.328097
 H        -1.878218        -1.023447         0.408507
 H        -2.141638        -0.089406         1.995500
 H        -3.703167         0.466067        -0.119038
 H        -1.379326         0.207258        -1.625208
 H        -1.973630         4.007733        -0.605839
 H        -3.487008         3.267900        -1.257677
 H        -3.549295         2.496684         1.250734
 H        -0.671227         3.230678         0.894313
 H        -1.255130         2.229990         2.334835
