19
Iteration:  2472
 O         0.651953         0.683222         0.536104
 C        -0.746140         1.018911         0.574670
 C        -1.794705        -0.030026         0.976587
 C        -2.814952         0.807765         0.041648
 C        -1.635117         1.046474        -0.921664
 O        -1.626822         2.272760        -1.616065
 C        -2.564218         3.006328        -0.774742
 C        -2.734591         2.347702         0.589573
 C        -1.258051         2.264045         1.263007
 H         1.086093         1.505939         0.294597
 H        -1.577357        -1.146716         0.589941
 H        -2.096778         0.050981         2.036816
 H        -3.669499         0.209233        -0.356664
 H        -1.354507         0.165621        -1.548439
 H        -2.100999         4.000949        -0.753464
 H        -3.471479         3.145443        -1.271202
 H        -3.547730         2.683698         1.232210
 H        -0.666913         3.085343         0.910935
 H        -1.245828         2.285033         2.427090
