19
Iteration:  3704
 O         0.529623         0.591303         0.650958
 C        -0.764783         0.947596         0.555938
 C        -1.800701        -0.036786         0.945733
 C        -2.650160         0.821466         0.104295
 C        -1.568261         1.031794        -0.940616
 O        -1.672347         2.365855        -1.556697
 C        -2.695224         3.090845        -0.814725
 C        -2.622644         2.265770         0.525845
 C        -1.193045         2.317981         1.175956
 H         1.008849         1.366648         0.271358
 H        -1.566926        -1.087682         0.707353
 H        -1.984275         0.054156         2.087740
 H        -3.585362         0.710996        -0.324685
 H        -1.470664         0.224244        -1.743668
 H        -2.345587         4.154207        -0.530428
 H        -3.688422         2.864745        -1.387294
 H        -3.547294         2.508013         1.120234
 H        -0.579672         3.166335         0.765936
 H        -1.235458         2.273681         2.173121
