19
Iteration:  1098
 O         0.706072         0.859755         0.637964
 C        -0.787136         0.982604         0.444580
 C        -1.937822        -0.129890         0.964937
 C        -2.798173         0.812980         0.012109
 C        -1.568461         1.049530        -0.887608
 O        -1.642522         2.265487        -1.583959
 C        -2.507414         3.076040        -0.747447
 C        -2.669383         2.344875         0.501927
 C        -1.264815         2.210442         1.246923
 H         0.786436        -0.143461         0.641646
 H        -1.822856        -1.206522         0.506510
 H        -2.022660        -0.088095         1.993850
 H        -3.804828         0.524504        -0.304182
 H        -1.410836         0.135023        -1.547788
 H        -2.034659         4.090471        -0.611966
 H        -3.566307         3.305199        -1.184887
 H        -3.476966         2.694360         1.235339
 H        -0.829610         3.180843         0.893140
 H        -1.246141         2.172271         2.359627
