19
Iteration:  4067charge 0 multiplicity 1
 O         0.624788         0.596886         0.604232
 C        -0.798673         1.029942         0.547760
 C        -1.834885         0.062242         0.980411
 C        -2.787037         0.797166        -0.038981
 C        -1.562865         0.990665        -0.939805
 O        -1.645236         2.288825        -1.572132
 C        -2.637263         3.092208        -0.723986
 C        -2.688338         2.282116         0.573757
 C        -1.231994         2.290508         1.204507
 H         1.195752         1.363521         0.446758
 H        -1.580358        -0.964781         0.595957
 H        -1.950461        -0.036697         2.069571
 H        -3.781000         0.412174        -0.441122
 H        -1.307100         0.143021        -1.588241
 H        -2.203939         4.125712        -0.606642
 H        -3.477294         3.112612        -1.454380
 H        -3.364481         2.725506         1.360427
 H        -0.579737         3.016064         0.834268
 H        -0.952959         2.207056         2.299253
