19
Iteration:  3811
 O         0.598375         0.665619         0.582233
 C        -0.810406         1.000261         0.504660
 C        -1.844847        -0.051503         0.958646
 C        -2.792378         0.749418         0.081923
 C        -1.504303         1.093062        -0.914924
 O        -1.645438         2.322208        -1.578229
 C        -2.535591         3.075524        -0.825364
 C        -2.727195         2.247635         0.593596
 C        -1.257942         2.262394         1.232524
 H         1.082134         1.394486         0.184812
 H        -1.909725        -1.071391         0.652991
 H        -1.878049        -0.071043         2.069343
 H        -3.766338         0.298984        -0.111693
 H        -1.275977         0.216508        -1.542058
 H        -1.925129         3.945617        -0.672683
 H        -3.427044         3.360725        -1.313090
 H        -3.459663         2.849588         1.096046
 H        -0.780323         3.207275         0.827910
 H        -1.053948         2.355107         2.443757
