19
Iteration:  4678
 O         0.630888         0.657445         0.689748
 C        -0.757296         0.930082         0.466665
 C        -1.899802        -0.051135         0.982147
 C        -2.716451         0.866341         0.007729
 C        -1.571511         1.044846        -0.943636
 O        -1.668166         2.278879        -1.674172
 C        -2.593941         3.118593        -0.709625
 C        -2.681548         2.350401         0.637322
 C        -1.230055         2.201255         1.183664
 H         1.056765         1.481571         0.447346
 H        -1.797712        -1.034381         0.483394
 H        -2.098203         0.067659         2.048682
 H        -3.681151         0.367215        -0.369567
 H        -1.341510         0.176368        -1.637654
 H        -2.099618         4.158495        -0.541002
 H        -3.511452         3.314978        -1.308804
 H        -3.559900         2.565081         1.363687
 H        -0.574140         3.077761         0.825256
 H        -1.205306         2.132544         2.221273
