19
Iteration:  2351charge 0 multiplicity 1
 O         0.581622         0.655251         0.578749
 C        -0.767550         0.979698         0.507869
 C        -1.799675        -0.021226         0.953749
 C        -2.799957         0.780220         0.016545
 C        -1.533292         1.012647        -0.845810
 O        -1.645613         2.307523        -1.503757
 C        -2.660481         3.067470        -0.791248
 C        -2.717421         2.331297         0.611460
 C        -1.185637         2.288161         1.102911
 H         1.108392         1.477537         0.805789
 H        -1.687490        -1.092800         0.518284
 H        -1.791563        -0.008437         2.044068
 H        -3.745450         0.453287        -0.388191
 H        -1.115675         0.286900        -1.569541
 H        -2.242430         4.062827        -0.850001
 H        -3.704727         2.963094        -1.261569
 H        -3.494463         2.593304         1.276383
 H        -0.637756         3.040641         0.624674
 H        -0.917259         2.374607         2.209303
