19
Iteration:   376charge 0 multiplicity 1
 O         0.540222         0.470440         0.669495
 C        -0.757766         0.998588         0.496444
 C        -1.790174         0.024954         1.025974
 C        -2.705144         0.797102         0.041354
 C        -1.453140         1.055410        -0.886055
 O        -1.642777         2.425107        -1.490254
 C        -2.731286         3.038539        -0.850669
 C        -2.678045         2.372858         0.545178
 C        -1.242274         2.262885         1.058902
 H         1.179530         1.173827         0.348189
 H        -1.677898        -1.038187         1.024399
 H        -2.121647         0.186242         2.046779
 H        -3.643739         0.410312        -0.375096
 H        -1.017032         0.407440        -1.654654
 H        -2.596347         4.153952        -0.798533
 H        -3.623143         2.725567        -1.485873
 H        -3.412396         2.552644         1.425657
 H        -0.832854         3.129355         0.571140
 H        -1.136046         2.181516         2.134138
