19
Iteration:   215charge 0 multiplicity 1
 O         0.646104         0.642054         0.598324
 C        -0.827925         0.927162         0.542573
 C        -1.888222        -0.079234         0.908071
 C        -2.774695         0.807126         0.019030
 C        -1.509059         1.052330        -0.849626
 O        -1.607509         2.426257        -1.471205
 C        -2.743059         2.968271        -0.792846
 C        -2.653647         2.379015         0.549131
 C        -1.128985         2.350535         1.065736
 H         0.744216         0.322392         1.508746
 H        -1.592451        -1.225009         0.695787
 H        -2.174057        -0.035575         1.969552
 H        -3.723201         0.492765        -0.363492
 H        -1.188393         0.411312        -1.607032
 H        -2.491176         4.052952        -0.627505
 H        -3.682711         2.779715        -1.233002
 H        -3.495889         2.638445         1.226989
 H        -0.567957         2.931936         0.248608
 H        -0.951398         2.500774         2.114488
