19
Iteration:   744charge 0 multiplicity 1
 O         0.625120         0.676199         0.427115
 C        -0.751970         1.018498         0.468904
 C        -1.909822        -0.030935         1.029073
 C        -2.782428         0.827930         0.030127
 C        -1.546470         0.997102        -0.863550
 O        -1.542113         2.265353        -1.543603
 C        -2.475914         3.050036        -0.819197
 C        -2.780318         2.250316         0.564800
 C        -1.358054         2.321907         1.336731
 H         1.121841         1.520687         0.365140
 H        -1.814575        -1.039006         0.777260
 H        -2.073944        -0.097363         2.121465
 H        -3.884360         0.606407        -0.258550
 H        -1.236710         0.279313        -1.651496
 H        -1.962678         3.959311        -0.445047
 H        -3.360309         3.335911        -1.242523
 H        -3.647719         2.608053         1.030262
 H        -0.942038         3.275696         1.031204
 H        -1.081554         2.079476         2.440025
