19
Iteration:   167charge 0 multiplicity 1
 O         0.606673         0.584976         0.625254
 C        -0.718041         1.062695         0.445250
 C        -1.786664         0.042361         0.990832
 C        -2.789107         0.816918         0.053302
 C        -1.535764         1.076820        -0.934586
 O        -1.704400         2.309653        -1.627613
 C        -2.591602         3.088682        -0.743718
 C        -2.670674         2.258822         0.545374
 C        -1.248839         2.244727         1.170143
 H         0.873266         0.724309         1.549707
 H        -1.562032        -0.904706         0.691837
 H        -2.049973        -0.025390         2.058206
 H        -3.821676         0.456514        -0.354348
 H        -1.256752         0.186355        -1.617542
 H        -2.148001         4.092150        -0.593687
 H        -3.486055         3.192850        -1.318660
 H        -3.470354         2.658595         1.240091
 H        -0.779427         3.176660         1.150852
 H        -1.461430         1.855043         2.174682
