19
Iteration:  1001
 O         0.561158         0.589709         0.726289
 C        -0.763651         0.984009         0.575662
 C        -1.871425        -0.038434         0.967477
 C        -2.782775         0.730044         0.065759
 C        -1.540102         1.135026        -0.976193
 O        -1.560938         2.458067        -1.512401
 C        -2.733532         3.055454        -0.809275
 C        -2.639487         2.246072         0.518793
 C        -1.162026         2.291418         1.112598
 H         1.074611         0.601806        -0.130464
 H        -1.615791        -1.034785         0.520895
 H        -2.068762        -0.101046         2.022702
 H        -3.788138         0.371452        -0.187036
 H        -1.285915         0.350068        -1.709345
 H        -2.558253         4.093945        -0.527527
 H        -3.647238         2.767661        -1.408633
 H        -3.531626         2.638417         1.122299
 H        -0.500705         3.006197         0.427443
 H        -0.980447         2.521211         2.273525
