19
Iteration:   362
 O         0.527230         0.439129         0.599718
 C        -0.740364         0.993036         0.555021
 C        -1.889596         0.061418         1.038786
 C        -2.701137         0.787928        -0.012214
 C        -1.474619         1.134220        -0.888064
 O        -1.598517         2.395055        -1.479654
 C        -2.766626         2.965468        -0.792090
 C        -2.664762         2.224445         0.496802
 C        -1.157662         2.449447         1.094339
 H         1.221260         1.097536         0.648659
 H        -1.597121        -0.856961         0.607149
 H        -2.139621         0.110215         2.187446
 H        -3.749716         0.419101        -0.348132
 H        -1.112208         0.328381        -1.668992
 H        -2.605225         3.993082        -0.790208
 H        -3.704931         2.677185        -1.219019
 H        -3.492490         2.539104         1.112968
 H        -0.539881         3.199087         0.708060
 H        -1.217828         2.567960         2.205307
