19
Iteration:  1870charge 0 multiplicity 1
 O         0.606749         0.708445         0.463648
 C        -0.791012         1.039974         0.474579
 C        -1.907294        -0.031072         0.956656
 C        -2.750298         0.774139         0.068923
 C        -1.580081         0.971650        -0.882230
 O        -1.598598         2.313201        -1.517757
 C        -2.548900         3.012685        -0.722168
 C        -2.658946         2.320550         0.591651
 C        -1.264135         2.290170         1.179511
 H         1.017730         1.331999         1.037076
 H        -1.924169        -1.061017         0.634285
 H        -2.197054         0.040595         2.011439
 H        -3.658157         0.521185        -0.412698
 H        -1.127280         0.263174        -1.582405
 H        -2.209206         4.086229        -0.691050
 H        -3.534845         3.007768        -1.340066
 H        -3.454912         2.581658         1.227288
 H        -0.639364         3.170451         1.078170
 H        -1.209525         1.991430         2.168415
