19
Iteration:  4384
 O         0.614268         0.683336         0.612087
 C        -0.762050         0.927279         0.508960
 C        -1.826036        -0.038389         0.982913
 C        -2.804883         0.821768         0.075094
 C        -1.571875         1.066158        -0.997161
 O        -1.661371         2.283754        -1.543462
 C        -2.544096         3.069776        -0.806162
 C        -2.637442         2.345964         0.532238
 C        -1.290218         2.214767         1.255123
 H         1.172198         1.486277         0.601839
 H        -1.751690        -0.976491         0.496200
 H        -1.922950        -0.189476         2.047865
 H        -3.796248         0.549578        -0.261316
 H        -1.309849         0.358773        -1.684443
 H        -2.418466         4.072326        -0.601616
 H        -3.617097         3.124522        -1.302025
 H        -3.409884         2.813615         1.152441
 H        -0.671419         2.939185         0.775313
 H        -1.097719         2.272872         2.339277
