19
Iteration:  4739charge 0 multiplicity 1
 O         0.601462         0.592839         0.523424
 C        -0.771057         0.995189         0.489438
 C        -1.905440         0.005641         0.987595
 C        -2.794416         0.824472         0.076136
 C        -1.546178         1.083593        -0.850724
 O        -1.573453         2.321191        -1.501928
 C        -2.604834         3.050904        -0.782749
 C        -2.674326         2.341157         0.498734
 C        -1.273225         2.254275         1.198269
 H         1.199544         1.177254         0.079042
 H        -1.703838        -0.995823         0.587539
 H        -1.920945        -0.157240         2.070255
 H        -3.619195         0.458041        -0.437256
 H        -1.204072         0.274281        -1.430225
 H        -2.246120         3.998716        -0.591796
 H        -3.495344         2.970754        -1.386524
 H        -3.368250         2.626667         1.248491
 H        -0.692755         3.122807         0.995490
 H        -1.381087         2.055489         2.393805
