19
Iteration:  1200
 O         0.637917         0.835256         0.593249
 C        -0.741384         1.004655         0.496744
 C        -1.900018        -0.055463         0.915719
 C        -2.715523         0.850353         0.046325
 C        -1.568102         0.990016        -0.891771
 O        -1.648033         2.223931        -1.579590
 C        -2.466186         3.093242        -0.732818
 C        -2.715946         2.304219         0.532259
 C        -1.330386         2.220707         1.248872
 H         0.670391        -0.096320         0.395388
 H        -1.930710        -0.998420         0.460671
 H        -2.147642        -0.220068         2.020592
 H        -3.682026         0.750093        -0.427461
 H        -1.230723         0.403768        -1.680670
 H        -2.019615         4.063783        -0.551099
 H        -3.524505         3.240909        -1.169565
 H        -3.508392         2.624276         1.181889
 H        -0.636972         3.141642         0.992986
 H        -1.388805         2.074798         2.446775
