19
Iteration:   795charge 0 multiplicity 1
 O         0.658978         0.743081         0.714166
 C        -0.742056         0.958470         0.484290
 C        -1.888884        -0.001748         0.898644
 C        -2.801483         0.861886         0.112888
 C        -1.638389         1.060761        -0.910760
 O        -1.556983         2.263811        -1.647815
 C        -2.558426         3.090375        -0.735023
 C        -2.719837         2.270139         0.576627
 C        -1.245334         2.223059         1.161453
 H         1.074498         0.966104        -0.105312
 H        -1.780696        -1.072325         0.486178
 H        -2.122004        -0.184431         2.024698
 H        -3.718494         0.428880        -0.374134
 H        -1.454246         0.200709        -1.619921
 H        -2.219121         4.138025        -0.529450
 H        -3.644376         2.974471        -1.207591
 H        -3.563275         2.623768         1.365007
 H        -0.569604         3.059956         0.912746
 H        -1.312052         2.021475         2.205156
