19
Iteration:  1024
 O         0.637017         0.594358         0.634068
 C        -0.738354         0.989672         0.463260
 C        -1.859737         0.009712         0.967358
 C        -2.727455         0.868134         0.007168
 C        -1.437913         1.066101        -0.892728
 O        -1.619507         2.260735        -1.488935
 C        -2.684144         3.120509        -0.739641
 C        -2.713464         2.299525         0.535601
 C        -1.307443         2.303642         1.165597
 H         0.985417         0.301327        -0.197388
 H        -1.681300        -1.005146         0.643895
 H        -2.185514         0.099446         2.047448
 H        -3.579189         0.727546        -0.659014
 H        -1.275355         0.181415        -1.507497
 H        -2.346389         4.148329        -0.661569
 H        -3.620331         2.898552        -1.297373
 H        -3.648098         2.482255         1.192691
 H        -0.742687         3.331211         0.987142
 H        -1.375092         2.085330         2.329724
