19
Iteration:  3686
 O         0.628879         0.630217         0.654530
 C        -0.746542         1.002129         0.452340
 C        -1.823736        -0.030029         0.962769
 C        -2.848355         0.801347         0.025287
 C        -1.540882         1.040064        -0.866105
 O        -1.655980         2.277240        -1.576703
 C        -2.617888         3.043783        -0.771090
 C        -2.686352         2.385171         0.605671
 C        -1.242900         2.273969         1.151372
 H         1.309135         1.283632         0.351147
 H        -1.590038        -0.914443         0.348717
 H        -2.029932        -0.175686         2.007375
 H        -3.815247         0.262914        -0.311149
 H        -1.162856         0.454025        -1.729057
 H        -2.285667         4.099178        -0.789475
 H        -3.590822         2.964505        -1.156869
 H        -3.354476         2.781508         1.401076
 H        -0.606251         3.141560         0.848084
 H        -1.179719         2.200387         2.337521
