19
Iteration:    75
 O         0.622360         0.580982         0.518330
 C        -0.716042         0.995534         0.514349
 C        -1.880107         0.028055         0.925792
 C        -2.737207         0.865178         0.043318
 C        -1.500772         1.057835        -0.880662
 O        -1.641712         2.302104        -1.482863
 C        -2.611086         3.064480        -0.786334
 C        -2.761720         2.284072         0.491807
 C        -1.255071         2.319551         1.219960
 H         1.021915         0.636582         1.415218
 H        -1.701018        -1.048903         0.530973
 H        -2.259227        -0.088661         1.910913
 H        -3.652513         0.421266        -0.229890
 H        -1.149227         0.369791        -1.597472
 H        -2.246838         4.081070        -0.688916
 H        -3.615391         3.190817        -1.307262
 H        -3.535208         2.502835         1.204197
 H        -0.555130         3.140698         0.832882
 H        -1.268295         2.107915         2.290590
