19
Iteration:  1648charge 0 multiplicity 1
 O         0.682047         0.673200         0.621463
 C        -0.673889         0.937351         0.522699
 C        -1.856421        -0.042352         0.948298
 C        -2.770742         0.888659        -0.038565
 C        -1.570660         1.034820        -0.932403
 O        -1.737040         2.298642        -1.592040
 C        -2.580092         3.044745        -0.731851
 C        -2.678231         2.336860         0.589220
 C        -1.262650         2.328237         1.188040
 H         0.896114         0.631523         1.544000
 H        -1.820906        -1.024373         0.370523
 H        -2.165990        -0.310241         1.967790
 H        -3.811623         0.441857        -0.460836
 H        -1.297165         0.128176        -1.522559
 H        -2.242370         4.124459        -0.780172
 H        -3.444748         2.928958        -1.232100
 H        -3.569531         2.500352         1.275918
 H        -0.514972         3.210997         0.793521
 H        -1.249999         2.302230         2.296048
