19
Iteration:  3155charge 0 multiplicity 1
 O         0.638896         0.599443         0.589649
 C        -0.715295         1.031863         0.411836
 C        -1.832952         0.019737         0.918377
 C        -2.795750         0.861150         0.001524
 C        -1.543576         1.004734        -0.884161
 O        -1.621887         2.284492        -1.475425
 C        -2.667022         3.065159        -0.736664
 C        -2.753621         2.281643         0.632737
 C        -1.207520         2.300602         1.213020
 H         1.218241         1.182654         0.009010
 H        -1.707055        -0.972422         0.342321
 H        -2.012204         0.063965         2.019719
 H        -3.710163         0.390814        -0.422776
 H        -1.168745         0.292073        -1.577071
 H        -2.469922         4.210459        -0.891714
 H        -3.608745         2.957883        -1.210834
 H        -3.520052         2.422055         1.368196
 H        -0.858068         3.357115         0.927020
 H        -1.061110         1.988970         2.208385
