19
Iteration:  3797charge 0 multiplicity 1
 O         0.608233         0.685802         0.567296
 C        -0.730038         0.996031         0.485011
 C        -1.864381        -0.014175         0.938402
 C        -2.811449         0.827499         0.089056
 C        -1.528928         1.004726        -0.847143
 O        -1.638638         2.225939        -1.563686
 C        -2.546352         3.118161        -0.712181
 C        -2.665967         2.333425         0.520666
 C        -1.307856         2.263971         1.160226
 H         1.105418         1.439706         0.199404
 H        -1.501798        -1.005347         0.549931
 H        -2.176725        -0.133999         1.993510
 H        -3.884545         0.499389        -0.289962
 H        -1.158575         0.313174        -1.633090
 H        -2.189333         4.131564        -0.515167
 H        -3.459330         3.041279        -1.264660
 H        -3.455157         2.498851         1.240265
 H        -0.650982         3.097075         1.051795
 H        -1.498254         1.990545         2.274108
