19
Iteration:   868charge 0 multiplicity 1
 O         0.650198         0.700538         0.602387
 C        -0.740201         0.968289         0.449086
 C        -1.880556        -0.007918         0.982256
 C        -2.740309         0.871846         0.003677
 C        -1.533024         1.049354        -0.877508
 O        -1.566594         2.326545        -1.480865
 C        -2.705591         3.049788        -0.802603
 C        -2.685619         2.334020         0.546025
 C        -1.227128         2.259302         1.164104
 H         0.625755        -0.293363         0.659105
 H        -1.618245        -1.076103         0.571331
 H        -2.283703         0.024493         1.978853
 H        -3.622529         0.357737        -0.324844
 H        -1.437764         0.154875        -1.517280
 H        -2.469528         4.102756        -0.723982
 H        -3.648583         2.922942        -1.309145
 H        -3.476405         2.671323         1.249483
 H        -0.670770         3.236016         0.869817
 H        -1.392574         1.999771         2.294952
