19
Iteration:  2634
 O         0.655445         0.683929         0.542263
 C        -0.785550         0.975437         0.495413
 C        -1.809873        -0.072101         0.974310
 C        -2.774137         0.878394         0.031452
 C        -1.586392         1.028007        -0.783754
 O        -1.570215         2.229372        -1.495454
 C        -2.625464         3.047484        -0.765556
 C        -2.730021         2.370726         0.549252
 C        -1.291777         2.264388         1.141642
 H         1.200754         1.437019         0.139041
 H        -1.806850        -1.076698         0.566296
 H        -1.913716        -0.038464         1.995968
 H        -3.692015         0.561857        -0.560703
 H        -1.337569         0.166004        -1.518433
 H        -2.323892         4.059122        -0.690275
 H        -3.575135         3.117842        -1.457100
 H        -3.563844         2.671747         1.258123
 H        -0.799508         3.155449         0.793644
 H        -1.126552         2.238114         2.289924
