19
Iteration:  3679
 O         0.668828         0.636367         0.641171
 C        -0.736113         1.010523         0.471521
 C        -1.878716         0.031178         0.884002
 C        -2.866505         0.781453         0.104466
 C        -1.503420         1.005617        -0.851862
 O        -1.660713         2.261602        -1.577672
 C        -2.606422         3.067609        -0.746943
 C        -2.692924         2.355923         0.598904
 C        -1.243715         2.279983         1.141277
 H         1.204474         1.371994         0.338845
 H        -1.538294        -0.928071         0.436037
 H        -1.927188        -0.249480         1.940726
 H        -3.762959         0.564314        -0.559289
 H        -1.350692         0.236957        -1.613940
 H        -2.232157         4.047127        -0.531788
 H        -3.602246         2.925316        -1.309447
 H        -3.411029         2.842266         1.231673
 H        -0.704851         3.149805         0.863209
 H        -1.287777         2.099092         2.248758
