19
Iteration:   281
 O         0.563060         0.853276         0.428343
 C        -0.764826         1.027097         0.530767
 C        -1.922630        -0.039121         0.931293
 C        -2.768694         0.846159         0.047393
 C        -1.514127         0.939818        -0.809720
 O        -1.715416         2.163180        -1.605657
 C        -2.415236         3.065564        -0.742917
 C        -2.662963         2.295876         0.520582
 C        -1.300333         2.268576         1.294482
 H         1.018761         1.176707         1.235233
 H        -1.668869        -1.138830         0.518879
 H        -2.222791        -0.356439         1.927877
 H        -3.725619         0.665099        -0.322004
 H        -1.184752         0.077659        -1.292912
 H        -1.701665         3.901312        -0.383059
 H        -3.179440         3.597364        -1.241776
 H        -3.519193         2.745197         1.081292
 H        -0.478453         3.053752         1.013471
 H        -1.536539         1.985711         2.298459
