19
Iteration:  4802
 O         0.611924         0.497227         0.696211
 C        -0.741649         1.011379         0.488435
 C        -1.829750        -0.014360         0.901912
 C        -2.708413         0.842350         0.040104
 C        -1.601428         1.043810        -0.974316
 O        -1.709797         2.284121        -1.517751
 C        -2.613520         3.114755        -0.791460
 C        -2.684009         2.338223         0.592790
 C        -1.222935         2.316087         1.175449
 H         1.186720         1.271763         0.638975
 H        -1.837505        -1.012681         0.509877
 H        -1.894734        -0.121215         1.999270
 H        -3.654306         0.574248        -0.423459
 H        -1.185751         0.437657        -1.743429
 H        -2.156403         4.106430        -0.752138
 H        -3.655949         3.186376        -1.260346
 H        -3.484010         2.555012         1.222621
 H        -0.631049         3.073490         0.788771
 H        -1.120104         2.409949         2.247147
