19
Iteration:  3474
 O         0.593032         0.665631         0.565229
 C        -0.757088         1.012088         0.470159
 C        -1.892236        -0.144148         1.044934
 C        -2.721308         0.737331         0.101454
 C        -1.548027         1.034160        -0.812465
 O        -1.711799         2.395280        -1.561992
 C        -2.529021         3.095862        -0.814099
 C        -2.722248         2.259272         0.506777
 C        -1.224976         2.288989         1.163245
 H         1.002580         1.270267        -0.123913
 H        -1.570242        -1.130772         0.574925
 H        -1.974113         0.000655         2.193415
 H        -3.639124         0.627260        -0.462015
 H        -1.107357         0.381659        -1.548377
 H        -2.122167         4.174704        -0.532020
 H        -3.511557         3.168709        -1.265494
 H        -3.523972         2.530013         1.249132
 H        -0.552031         3.298941         1.011126
 H        -1.184477         2.115337         2.205820
