19
Iteration:  2537
 O         0.578815         0.603049         0.720354
 C        -0.735275         0.964393         0.460176
 C        -1.833833         0.008478         0.963982
 C        -2.705241         0.813139         0.056763
 C        -1.504854         1.054239        -0.958152
 O        -1.681367         2.312547        -1.530939
 C        -2.748542         3.000775        -0.759626
 C        -2.671589         2.325469         0.562042
 C        -1.169412         2.334121         1.093361
 H         1.225851         1.240467         0.286376
 H        -1.784745        -0.990288         0.357054
 H        -2.081498        -0.048336         2.031335
 H        -3.745911         0.469153        -0.206795
 H        -1.061782         0.335090        -1.707291
 H        -2.472054         4.051623        -0.611353
 H        -3.701768         2.949167        -1.259632
 H        -3.393021         2.738376         1.295210
 H        -0.467292         3.068529         0.785525
 H        -1.269327         2.343118         2.254161
