19
Iteration:  1251
 O         0.600048         0.833425         0.657025
 C        -0.785989         0.969729         0.466745
 C        -1.894450         0.000793         0.900473
 C        -2.802602         0.828408         0.005946
 C        -1.531169         1.063245        -0.881468
 O        -1.665738         2.193617        -1.563783
 C        -2.497442         3.068992        -0.742300
 C        -2.642358         2.265695         0.551231
 C        -1.277361         2.246104         1.241445
 H         0.906077         0.100124         0.119899
 H        -1.636965        -1.028140         0.372947
 H        -2.046051        -0.104341         1.964449
 H        -3.776386         0.484284        -0.364278
 H        -1.348075         0.258230        -1.670398
 H        -1.766995         3.898246        -0.544618
 H        -3.484557         3.447802        -1.080458
 H        -3.454665         2.840865         1.152130
 H        -0.730180         3.142563         1.075851
 H        -1.252625         2.035185         2.253699
