19
Iteration:  2287charge 0 multiplicity 1
 O         0.642498         0.693126         0.613438
 C        -0.748932         1.000949         0.519259
 C        -1.774889        -0.091412         0.970412
 C        -2.822501         0.823999         0.021977
 C        -1.573669         1.001857        -0.856989
 O        -1.747873         2.277414        -1.661343
 C        -2.524170         3.062605        -0.757279
 C        -2.648755         2.300073         0.538934
 C        -1.289026         2.368148         1.269496
 H         1.179668         1.199471        -0.022133
 H        -1.667799        -1.086777         0.495656
 H        -1.817469        -0.204591         2.011830
 H        -3.794240         0.446726        -0.312791
 H        -1.326319         0.135409        -1.465564
 H        -1.967183         4.004553        -0.479992
 H        -3.595520         3.138389        -1.217001
 H        -3.456599         2.652899         1.094790
 H        -0.674324         3.248616         1.077355
 H        -1.429710         2.159935         2.386436
