19
Iteration:  2649
 O         0.630259         0.613634         0.616802
 C        -0.697536         0.967320         0.497647
 C        -1.843941        -0.016366         0.978084
 C        -2.809224         0.771237         0.123113
 C        -1.539179         1.002271        -0.904698
 O        -1.625654         2.352350        -1.520162
 C        -2.658350         3.099366        -0.850488
 C        -2.732515         2.270498         0.534362
 C        -1.208668         2.360010         1.163686
 H         1.062595         1.286342         0.069824
 H        -1.506621        -1.058651         0.493635
 H        -2.188285        -0.178080         2.121127
 H        -3.788726         0.326343        -0.104753
 H        -1.366200         0.230726        -1.580146
 H        -2.222779         4.193744        -0.726110
 H        -3.642544         3.093353        -1.452222
 H        -3.476944         2.627343         1.179799
 H        -0.500573         3.196541         0.982124
 H        -1.384538         2.190876         2.246365
