19
Iteration:  1342charge 0 multiplicity 1
 O         0.594272         0.728527         0.610550
 C        -0.719662         0.931599         0.533542
 C        -1.875121        -0.019114         0.946219
 C        -2.790385         0.749396         0.020972
 C        -1.485815         1.052629        -0.822390
 O        -1.674126         2.336890        -1.595292
 C        -2.626392         3.156345        -0.782702
 C        -2.658113         2.347210         0.510911
 C        -1.234341         2.204482         1.180339
 H         0.992530        -0.092766         0.904584
 H        -1.761365        -1.063570         0.586911
 H        -2.102656        -0.166303         2.127806
 H        -3.717159         0.448680        -0.495807
 H        -1.249638         0.313051        -1.512401
 H        -2.151293         4.146213        -0.632414
 H        -3.561839         3.315456        -1.298326
 H        -3.472694         2.522690         1.216263
 H        -0.684028         3.122659         0.810989
 H        -1.152460         2.162888         2.275405
