19
Iteration:  3761
 O         0.605545         0.629801         0.601523
 C        -0.794333         1.006238         0.526264
 C        -1.855724        -0.049728         0.948275
 C        -2.781141         0.769277         0.161213
 C        -1.585552         1.065328        -0.871339
 O        -1.586331         2.335862        -1.604303
 C        -2.584869         3.072587        -0.747521
 C        -2.666705         2.297132         0.550626
 C        -1.259294         2.253923         1.085805
 H         1.101411         1.394024         0.296623
 H        -1.680311        -1.064945         0.459355
 H        -2.016344        -0.112769         2.034551
 H        -3.781195         0.494737        -0.160169
 H        -0.921045         0.407659        -1.484043
 H        -2.474900         4.204768        -0.703049
 H        -3.633556         2.998312        -1.241705
 H        -3.478977         2.775542         1.167614
 H        -0.666791         3.163512         0.993002
 H        -1.239559         2.124408         2.115547
