19
Iteration:  2689
 O         0.642418         0.535725         0.700392
 C        -0.709780         1.047051         0.521374
 C        -1.896959         0.046563         0.934591
 C        -2.693138         0.793569         0.014312
 C        -1.511422         1.026873        -0.912608
 O        -1.750194         2.278193        -1.524105
 C        -2.714392         3.094338        -0.782861
 C        -2.696735         2.297492         0.537513
 C        -1.138793         2.357038         1.116840
 H         1.327735         1.235416         0.582325
 H        -1.678389        -0.910479         0.485886
 H        -2.263193        -0.140613         1.867851
 H        -3.715858         0.431164        -0.347105
 H        -1.245190         0.262396        -1.761631
 H        -2.351141         4.049568        -0.562503
 H        -3.690387         3.046055        -1.327092
 H        -3.464850         2.404932         1.357126
 H        -0.661833         3.243769         0.753915
 H        -1.015202         2.214569         2.257707
