19
Iteration:   766
 O         0.547478         0.709372         0.412266
 C        -0.816043         1.016173         0.592258
 C        -1.815879        -0.056119         0.921049
 C        -2.748609         0.786877         0.084101
 C        -1.556390         1.039625        -0.760171
 O        -1.567633         2.182161        -1.527838
 C        -2.460124         3.126907        -0.763808
 C        -2.694952         2.371966         0.504823
 C        -1.379209         2.236510         1.226994
 H         0.882060         1.520504        -0.017928
 H        -1.528044        -0.999615         0.633569
 H        -2.204798        -0.141376         1.918295
 H        -3.707603         0.348732        -0.370279
 H        -1.102280         0.294425        -1.408821
 H        -1.995212         4.110248        -0.549748
 H        -3.368030         3.252400        -1.244752
 H        -3.489003         2.757201         1.041625
 H        -0.683746         3.065324         1.129366
 H        -1.641892         2.076917         2.326492
