19
Iteration:  1923charge 0 multiplicity 1
 O         0.625807         0.588376         0.749397
 C        -0.764233         1.034483         0.528000
 C        -1.804989        -0.022044         0.840990
 C        -2.827297         0.768052         0.053642
 C        -1.498241         1.052303        -0.912791
 O        -1.767916         2.336305        -1.571591
 C        -2.653088         3.085540        -0.747954
 C        -2.648715         2.270835         0.557440
 C        -1.172584         2.319155         1.158660
 H         1.137485         0.945843         0.045498
 H        -1.464428        -0.955349         0.518143
 H        -1.888248        -0.134472         1.974872
 H        -3.756723         0.448824        -0.489195
 H        -1.219803         0.284889        -1.651407
 H        -2.118145         4.112438        -0.677914
 H        -3.645771         3.131209        -1.291152
 H        -3.310225         2.587267         1.301946
 H        -0.724964         3.135714         0.738184
 H        -1.128026         2.364457         2.231583
