19
Iteration:  1206
 O         0.634099         0.835703         0.569383
 C        -0.736766         0.963257         0.503669
 C        -1.861652        -0.032506         0.890245
 C        -2.794145         0.840501         0.039379
 C        -1.538862         0.991435        -0.813008
 O        -1.705308         2.247980        -1.586591
 C        -2.415666         3.118985        -0.741809
 C        -2.722502         2.316039         0.490999
 C        -1.319620         2.222994         1.278794
 H         0.911579        -0.097089         0.458780
 H        -1.817204        -1.137198         0.455043
 H        -2.051613        -0.029121         1.932501
 H        -3.773564         0.498338        -0.374858
 H        -1.204726         0.150611        -1.555285
 H        -1.937646         4.101096        -0.487162
 H        -3.334904         3.251474        -1.342240
 H        -3.580795         2.601034         1.188584
 H        -0.724627         3.073144         1.225722
 H        -1.491693         2.028714         2.265897
