19
Iteration:  2920charge 0 multiplicity 1
 O         0.642005         0.699748         0.459525
 C        -0.781113         0.964135         0.444045
 C        -1.827387        -0.022680         0.922033
 C        -2.713596         0.867899        -0.016903
 C        -1.576569         1.000406        -0.883850
 O        -1.596575         2.251651        -1.449187
 C        -2.661230         3.073938        -0.758073
 C        -2.724166         2.340271         0.639881
 C        -1.251400         2.264294         1.199940
 H         0.860084         1.155125         1.254075
 H        -1.707233        -1.051483         0.551958
 H        -2.065182        -0.013115         1.944178
 H        -3.674088         0.484584        -0.341292
 H        -1.251147         0.045753        -1.535946
 H        -2.290310         4.067270        -0.550452
 H        -3.523003         3.149801        -1.424454
 H        -3.606103         2.634922         1.331096
 H        -0.629389         3.152014         0.961358
 H        -1.227532         2.110887         2.345084
