19
Iteration:  4915charge 0 multiplicity 1
 O         0.631386         0.541981         0.604092
 C        -0.772154         0.944344         0.520670
 C        -1.887383         0.005961         0.926121
 C        -2.673803         0.859171         0.062322
 C        -1.537620         1.081138        -0.926166
 O        -1.643934         2.287903        -1.544078
 C        -2.622194         3.079340        -0.774900
 C        -2.731601         2.320612         0.573360
 C        -1.235417         2.319178         1.202968
 H         1.076864         1.325728         0.288986
 H        -1.672065        -1.101037         0.693682
 H        -2.076545         0.002694         2.026937
 H        -3.672149         0.511878        -0.227730
 H        -1.469948         0.240856        -1.675437
 H        -2.297978         4.137924        -0.753045
 H        -3.580147         3.140752        -1.429148
 H        -3.750783         2.608020         0.957255
 H        -0.623090         3.161901         1.077094
 H        -1.024922         2.188328         2.343990
