19
Iteration:  3432
 O         0.645922         0.560247         0.626864
 C        -0.697199         0.996933         0.423255
 C        -1.808520        -0.066199         0.972694
 C        -2.773366         0.863904         0.080023
 C        -1.516674         1.069530        -0.886484
 O        -1.672902         2.376296        -1.467095
 C        -2.726709         3.020368        -0.801189
 C        -2.715791         2.319623         0.539622
 C        -1.191943         2.300770         1.128467
 H         1.373154         1.146239         0.463275
 H        -1.763784        -0.980075         0.450330
 H        -2.057959        -0.106078         2.057161
 H        -3.686159         0.458370        -0.313224
 H        -1.447468         0.233917        -1.632798
 H        -2.477729         4.154595        -0.727950
 H        -3.739967         2.930297        -1.359836
 H        -3.554589         2.634006         1.239380
 H        -0.691434         3.195517         0.871515
 H        -1.172865         2.106200         2.196382
