19
Iteration:  1086
 O         0.703050         0.920504         0.631422
 C        -0.710420         0.951009         0.497966
 C        -1.942301        -0.024074         0.904332
 C        -2.869055         0.852785         0.081807
 C        -1.628311         1.006314        -0.916730
 O        -1.646423         2.227493        -1.567848
 C        -2.406639         3.092806        -0.757745
 C        -2.706781         2.245542         0.608458
 C        -1.320596         2.190336         1.159466
 H         1.098715         0.052385         0.648334
 H        -1.653418        -1.066142         0.420674
 H        -2.228822        -0.229399         1.897379
 H        -3.837623         0.528460        -0.315957
 H        -1.467743         0.257268        -1.768738
 H        -1.831943         4.040629        -0.549460
 H        -3.318351         3.290067        -1.403490
 H        -3.513571         2.787051         1.161597
 H        -0.651233         3.038816         1.027341
 H        -1.308040         1.983949         2.209665
