19
Iteration:  3779
 O         0.609178         0.686848         0.582517
 C        -0.776050         0.945926         0.481640
 C        -1.808899        -0.063409         0.967303
 C        -2.783097         0.879448         0.012375
 C        -1.536729         1.021276        -0.930054
 O        -1.634803         2.281618        -1.521158
 C        -2.596282         3.039615        -0.821485
 C        -2.692632         2.325879         0.596728
 C        -1.247016         2.266079         1.270927
 H         1.098677         1.446087         0.238598
 H        -1.809814        -0.977372         0.424972
 H        -1.946659        -0.069433         2.059099
 H        -3.711570         0.505398        -0.328507
 H        -1.600778         0.056032        -1.443563
 H        -2.121419         4.019560        -0.809224
 H        -3.571451         3.236113        -1.338514
 H        -3.509187         2.741241         1.191021
 H        -0.684285         3.220395         0.954320
 H        -1.258662         2.162057         2.415747
