19
Iteration:  1323charge 0 multiplicity 1
 O         0.634199         0.605095         0.611834
 C        -0.749149         1.015414         0.502297
 C        -1.864947        -0.024294         0.995447
 C        -2.729461         0.846864         0.007912
 C        -1.514106         1.089959        -0.964171
 O        -1.606902         2.354760        -1.489560
 C        -2.655478         3.041279        -0.777727
 C        -2.695672         2.263276         0.563909
 C        -1.268455         2.346087         1.136109
 H         0.604262        -0.339826         0.675480
 H        -1.709727        -1.026657         0.622501
 H        -2.153294         0.004740         2.124520
 H        -3.669747         0.375368        -0.422226
 H        -1.144509         0.303158        -1.654387
 H        -2.424100         4.048329        -0.476728
 H        -3.563497         2.908305        -1.366018
 H        -3.497302         2.597617         1.177329
 H        -0.588169         3.176744         0.732660
 H        -1.373433         2.477468         2.338229
