19
Iteration:  1882
 O         0.649233         0.666467         0.577599
 C        -0.703313         1.004199         0.409659
 C        -1.872100        -0.028256         0.927286
 C        -2.870748         0.797432         0.009622
 C        -1.567264         1.127053        -0.871667
 O        -1.649459         2.235429        -1.532623
 C        -2.585089         3.065329        -0.754377
 C        -2.674326         2.273367         0.549811
 C        -1.218041         2.255521         1.213715
 H         1.160182         1.447243         0.939259
 H        -1.582799        -1.090263         0.724110
 H        -2.089622         0.049935         1.983660
 H        -3.882298         0.521248         0.001187
 H        -1.295032         0.322401        -1.592084
 H        -2.205566         4.068527        -0.501359
 H        -3.649576         3.072373        -1.221269
 H        -3.431685         2.760874         1.135691
 H        -0.621485         3.201674         1.026756
 H        -1.322561         2.091483         2.240823
