19
Iteration:  1446
 O         0.547473         0.586503         0.643736
 C        -0.814414         0.987302         0.497379
 C        -1.837235        -0.021485         0.992030
 C        -2.746231         0.779448         0.063054
 C        -1.488839         1.045004        -0.931810
 O        -1.537938         2.397584        -1.451371
 C        -2.649179         3.032714        -0.778805
 C        -2.664256         2.314316         0.512883
 C        -1.296574         2.320044         1.112538
 H         1.006027         0.915770        -0.122093
 H        -1.760954        -1.035429         0.483497
 H        -1.925942         0.034408         2.092891
 H        -3.636565         0.468129        -0.408593
 H        -1.431195         0.194776        -1.680858
 H        -2.491046         4.101051        -0.871209
 H        -3.568440         2.794757        -1.284792
 H        -3.345945         2.641799         1.304434
 H        -0.693218         3.173554         0.782766
 H        -1.158408         2.296540         2.301110
