19
Iteration:  1585
 O         0.635834         0.676290         0.443938
 C        -0.784155         0.998729         0.490469
 C        -1.902867        -0.020847         1.009352
 C        -2.755741         0.834583         0.047917
 C        -1.529944         1.037148        -0.802702
 O        -1.549755         2.316412        -1.432965
 C        -2.586126         3.065166        -0.830502
 C        -2.735167         2.239875         0.530734
 C        -1.244173         2.293684         1.127385
 H         0.885222         0.717643         1.378384
 H        -1.907604        -0.949993         0.503768
 H        -2.284140         0.037996         2.071160
 H        -3.657300         0.335202        -0.310603
 H        -1.238723         0.388684        -1.638567
 H        -2.443209         4.157711        -0.698896
 H        -3.644337         3.004754        -1.395632
 H        -3.512485         2.541525         1.174731
 H        -0.588952         3.151981         0.961578
 H        -1.335311         2.170404         2.174783
