19
Iteration:  2409charge 0 multiplicity 1
 O         0.581547         0.611941         0.586465
 C        -0.697460         1.046874         0.535253
 C        -1.838848        -0.027006         0.990418
 C        -2.689032         0.800385         0.073877
 C        -1.537090         1.050035        -0.879973
 O        -1.685478         2.314278        -1.557320
 C        -2.661602         2.999565        -0.763400
 C        -2.662895         2.282535         0.546958
 C        -1.252747         2.335561         1.101953
 H         1.288410         1.202909         0.396282
 H        -1.758129        -1.051054         0.570908
 H        -2.058693        -0.135547         2.071816
 H        -3.666408         0.464458        -0.396155
 H        -1.438430         0.256799        -1.590833
 H        -2.300931         4.106948        -0.627522
 H        -3.701182         3.313820        -1.241288
 H        -3.365992         2.585936         1.313313
 H        -0.658838         3.287861         0.919185
 H        -1.415891         2.107078         2.130073
