19
Iteration:  2847charge 0 multiplicity 1
 O         0.631191         0.719772         0.685695
 C        -0.742927         0.988600         0.466121
 C        -1.837606        -0.026144         0.878037
 C        -2.764507         0.809643         0.107892
 C        -1.509099         1.040003        -0.937768
 O        -1.688725         2.333396        -1.581649
 C        -2.657649         3.054927        -0.786365
 C        -2.698239         2.262213         0.595355
 C        -1.190606         2.293058         1.189603
 H         0.828699        -0.140076         0.223329
 H        -1.693477        -1.071715         0.609199
 H        -2.130071        -0.098852         2.019416
 H        -3.798086         0.597392        -0.109480
 H        -1.257773         0.307398        -1.654386
 H        -2.051110         4.020949        -0.621676
 H        -3.683841         3.045588        -1.280187
 H        -3.496144         2.606462         1.178810
 H        -0.751290         3.293575         0.833655
 H        -1.053085         2.345657         2.256950
