19
Iteration:  2744charge 0 multiplicity 1
 O         0.662308         0.678483         0.557526
 C        -0.763046         1.005770         0.526007
 C        -1.832131        -0.001117         0.916091
 C        -2.838925         0.834078         0.027453
 C        -1.571563         0.986294        -0.863441
 O        -1.650873         2.240578        -1.518932
 C        -2.511684         3.009553        -0.734140
 C        -2.658436         2.330650         0.537971
 C        -1.311049         2.304849         1.178841
 H         1.052287         1.512791         0.359995
 H        -1.595246        -1.004595         0.560846
 H        -1.988831         0.066127         1.914250
 H        -3.899980         0.595681        -0.303260
 H        -1.404366         0.232744        -1.723525
 H        -2.356553         4.014124        -0.535623
 H        -3.477284         3.012635        -1.225210
 H        -3.409902         2.647942         1.301072
 H        -0.691056         3.131520         0.903163
 H        -1.382827         2.256821         2.338373
