19
Iteration:  3798charge 0 multiplicity 1
 O         0.606973         0.685628         0.567823
 C        -0.733118         0.993747         0.480430
 C        -1.866737        -0.018969         0.936142
 C        -2.819999         0.815949         0.093024
 C        -1.515452         1.016527        -0.849904
 O        -1.641398         2.229010        -1.563684
 C        -2.543761         3.118957        -0.717860
 C        -2.664091         2.329097         0.523928
 C        -1.307886         2.264022         1.163443
 H         1.128595         1.443410         0.193141
 H        -1.510420        -0.991949         0.548937
 H        -2.182663        -0.093769         1.995484
 H        -3.890561         0.478867        -0.241978
 H        -1.164857         0.292008        -1.619044
 H        -2.195630         4.119580        -0.529673
 H        -3.437047         3.073317        -1.271082
 H        -3.441128         2.508323         1.239389
 H        -0.648954         3.109420         1.018465
 H        -1.509593         2.009877         2.321666
