19
Iteration:    69charge 0 multiplicity 1
 O         0.628731         0.538149         0.558311
 C        -0.699267         1.010631         0.534675
 C        -1.893541        -0.005134         0.914648
 C        -2.748730         0.884111        -0.003051
 C        -1.474758         1.098219        -0.907889
 O        -1.657207         2.293996        -1.532644
 C        -2.642642         3.027776        -0.753582
 C        -2.768601         2.264651         0.572495
 C        -1.243036         2.380461         1.179172
 H         1.039867         0.576267         1.454976
 H        -1.644519        -0.915218         0.486568
 H        -2.249359        -0.242166         1.987116
 H        -3.767488         0.487835        -0.356791
 H        -1.023904         0.351225        -1.666990
 H        -2.162506         4.030312        -0.671965
 H        -3.587027         3.184933        -1.282028
 H        -3.503061         2.595966         1.358479
 H        -0.649710         3.167200         0.819912
 H        -1.166247         2.337439         2.289371
