19
Iteration:  2911charge 0 multiplicity 1
 O         0.600248         0.737293         0.440691
 C        -0.728242         0.983294         0.463108
 C        -1.804790        -0.035193         0.904617
 C        -2.835009         0.870156        -0.002263
 C        -1.512790         0.990149        -0.817622
 O        -1.551018         2.212582        -1.511999
 C        -2.671326         3.141070        -0.716084
 C        -2.704717         2.326283         0.630444
 C        -1.304186         2.255710         1.191351
 H         0.951626         0.794492         1.317318
 H        -1.573264        -1.058209         0.626530
 H        -2.100012        -0.075175         1.998154
 H        -3.707921         0.615139        -0.579614
 H        -1.357943         0.055030        -1.482511
 H        -2.211112         4.195432        -0.657152
 H        -3.648648         2.970424        -1.161699
 H        -3.513566         2.464133         1.341623
 H        -0.656382         3.200279         0.881054
 H        -1.051975         2.083547         2.279098
