19
Iteration:  1914
 O         0.575289         0.604923         0.734194
 C        -0.758841         0.965794         0.487266
 C        -1.789457        -0.158612         0.930048
 C        -2.712274         0.793201         0.045628
 C        -1.496939         1.134387        -0.928945
 O        -1.772513         2.296588        -1.594364
 C        -2.640852         3.109071        -0.712334
 C        -2.646366         2.324006         0.538425
 C        -1.207170         2.347024         1.137208
 H         1.152256         1.102469         0.174671
 H        -1.540611        -1.120710         0.460842
 H        -2.080933        -0.197260         1.975282
 H        -3.718584         0.456745        -0.134278
 H        -1.255148         0.311472        -1.631389
 H        -2.192186         4.168725        -0.633491
 H        -3.660809         3.273588        -1.298905
 H        -3.434319         2.636020         1.182782
 H        -0.663074         3.208320         0.822692
 H        -1.247731         2.371227         2.155069
