19
Iteration:  1564charge 0 multiplicity 1
 O         0.550187         0.776128         0.411842
 C        -0.846470         0.967608         0.524870
 C        -1.866420        -0.117157         0.988411
 C        -2.805072         0.841732        -0.004392
 C        -1.504522         1.015939        -0.851643
 O        -1.486358         2.273210        -1.550606
 C        -2.565429         3.027183        -0.770533
 C        -2.662969         2.354039         0.619039
 C        -1.307446         2.263136         1.241504
 H         1.086600         0.934445         1.247443
 H        -1.542360        -1.154493         0.749059
 H        -2.279266         0.011671         2.081939
 H        -3.768288         0.479162        -0.210560
 H        -1.233294         0.256892        -1.612019
 H        -2.376510         4.093529        -0.662278
 H        -3.632164         3.066773        -1.271346
 H        -3.471646         2.815112         1.108366
 H        -0.576471         2.870325         0.794424
 H        -1.340101         2.425753         2.291923
