19
Iteration:   516
 O         0.628652         0.498743         0.797654
 C        -0.654487         0.947956         0.484874
 C        -1.883635         0.065270         0.904131
 C        -2.712528         0.934946         0.039206
 C        -1.510249         1.058867        -0.960502
 O        -1.686318         2.388143        -1.505788
 C        -2.766660         2.967063        -0.808094
 C        -2.655465         2.291886         0.584719
 C        -1.195517         2.333133         1.054088
 H         1.241834         1.257686         0.593871
 H        -1.769428        -0.943304         0.538916
 H        -2.054579        -0.168894         2.021793
 H        -3.694975         0.566408        -0.362259
 H        -1.623237         0.213962        -1.691708
 H        -2.590829         4.014067        -0.713324
 H        -3.711552         2.766738        -1.343263
 H        -3.460604         2.329536         1.274042
 H        -0.670511         3.107094         0.561019
 H        -1.013425         2.295529         2.150647
