19
Iteration:  2421
 O         0.621902         0.642359         0.654546
 C        -0.765641         0.991525         0.471422
 C        -1.811833        -0.004794         0.952222
 C        -2.748030         0.823046         0.076402
 C        -1.554493         0.935882        -0.962065
 O        -1.730806         2.292712        -1.601061
 C        -2.581917         3.101236        -0.729648
 C        -2.646225         2.263991         0.568095
 C        -1.265035         2.353329         1.204236
 H         1.023089         1.390932         0.123253
 H        -1.639761        -0.917129         0.446167
 H        -2.011595        -0.163341         2.024170
 H        -3.788339         0.422327        -0.082372
 H        -1.033496         0.243347        -1.585740
 H        -2.043618         4.106593        -0.566359
 H        -3.644921         3.059171        -1.235894
 H        -3.523578         2.418123         1.231147
 H        -0.758081         3.337399         0.847176
 H        -1.177660         2.384102         2.248882
