19
Iteration:   528
 O         0.583634         0.458940         0.824034
 C        -0.728275         0.946541         0.450604
 C        -1.755195         0.019474         0.918627
 C        -2.696048         0.822958         0.042376
 C        -1.540799         1.106529        -0.940306
 O        -1.676507         2.340151        -1.554355
 C        -2.802368         3.066398        -0.756761
 C        -2.671572         2.303638         0.531729
 C        -1.199913         2.358153         1.060785
 H         1.274708         1.052407         0.486140
 H        -1.636171        -1.000062         0.485618
 H        -1.879125         0.204854         2.015954
 H        -3.654186         0.454359        -0.279922
 H        -1.179148         0.406161        -1.706364
 H        -2.567105         4.092460        -0.738815
 H        -3.757361         2.941627        -1.245636
 H        -3.290170         2.765121         1.322502
 H        -0.605773         3.199600         0.792834
 H        -1.307868         2.423085         2.146747
