19
Iteration:  4652
 O         0.570473         0.536185         0.669524
 C        -0.748331         1.024715         0.522773
 C        -1.828527        -0.035027         0.900766
 C        -2.750416         0.825462         0.045416
 C        -1.580424         1.046769        -0.917674
 O        -1.693851         2.327861        -1.545729
 C        -2.595000         3.076778        -0.779607
 C        -2.671552         2.343076         0.567731
 C        -1.185617         2.287031         1.126026
 H         1.156217         1.287013         0.792905
 H        -1.611252        -0.951238         0.401593
 H        -2.012623        -0.037144         1.968094
 H        -3.630556         0.357225        -0.127434
 H        -1.108208         0.387962        -1.574788
 H        -2.291416         4.107192        -0.611795
 H        -3.580150         3.072089        -1.465861
 H        -3.458559         2.583908         1.228361
 H        -0.631806         3.137062         0.855881
 H        -1.358421         2.218557         2.240549
