19
Iteration:  1152charge 0 multiplicity 1
 O         0.629070         0.569012         0.724409
 C        -0.724429         0.847960         0.487095
 C        -1.864936         0.002856         0.968135
 C        -2.703173         0.843565         0.011230
 C        -1.460558         1.065215        -0.918606
 O        -1.590223         2.416031        -1.468535
 C        -2.746269         3.046674        -0.793307
 C        -2.765371         2.327932         0.552292
 C        -1.234512         2.400068         1.055745
 H         1.050587        -0.061365         0.079813
 H        -1.529425        -1.119142         0.642931
 H        -2.160768        -0.132547         1.970108
 H        -3.693221         0.456302        -0.260197
 H        -1.503449         0.280388        -1.759781
 H        -2.553027         4.147842        -0.722397
 H        -3.568173         2.893078        -1.404880
 H        -3.444028         2.479266         1.468771
 H        -0.802563         3.323512         0.708164
 H        -1.236877         2.386179         2.113970
