19
Iteration:   747charge 0 multiplicity 1
 O         0.612319         0.683252         0.399021
 C        -0.754369         1.013405         0.496698
 C        -1.910322        -0.021974         1.061717
 C        -2.812905         0.823862         0.008290
 C        -1.517749         0.996526        -0.844695
 O        -1.543935         2.269305        -1.556674
 C        -2.458882         3.060862        -0.810057
 C        -2.795507         2.235641         0.556801
 C        -1.352880         2.336917         1.358466
 H         1.145147         1.523861         0.284343
 H        -1.840025        -1.121691         0.578888
 H        -1.953678        -0.223678         2.118982
 H        -3.807227         0.575262        -0.307699
 H        -1.287251         0.199423        -1.522903
 H        -1.901990         3.924768        -0.499711
 H        -3.357737         3.358548        -1.386420
 H        -3.610927         2.593303         1.116892
 H        -0.927591         3.318099         1.014400
 H        -1.136800         2.082170         2.467154
