19
Iteration:  2567
 O         0.612850         0.624978         0.664685
 C        -0.706977         1.046547         0.470899
 C        -1.845484        -0.064976         0.971107
 C        -2.752463         0.801087         0.087430
 C        -1.544705         1.078773        -0.894970
 O        -1.709547         2.249093        -1.629110
 C        -2.652646         3.092784        -0.763288
 C        -2.673398         2.245869         0.527265
 C        -1.209251         2.350912         1.189609
 H         1.254172         1.241833         0.336443
 H        -1.721908        -0.977111         0.448778
 H        -2.072715        -0.285489         1.967160
 H        -3.751230         0.533110        -0.233523
 H        -1.086604         0.244084        -1.525456
 H        -2.271290         4.065485        -0.511420
 H        -3.647627         3.340834        -1.355579
 H        -3.470491         2.619526         1.245848
 H        -0.537441         3.173180         0.983695
 H        -1.346574         2.260245         2.290759
