19
Iteration:  3525
 O         0.555516         0.670218         0.555424
 C        -0.791297         0.988425         0.512396
 C        -1.804446        -0.178511         0.988942
 C        -2.748520         0.803816         0.073420
 C        -1.539557         1.070978        -0.904439
 O        -1.652241         2.296993        -1.596651
 C        -2.588820         3.124109        -0.756932
 C        -2.675455         2.344501         0.572838
 C        -1.250107         2.270640         1.199869
 H         1.030757         1.554526         0.523342
 H        -1.586501        -1.188725         0.547914
 H        -1.966319        -0.028755         2.018799
 H        -3.694685         0.315514        -0.344118
 H        -1.273035         0.271014        -1.543812
 H        -2.196349         4.113993        -0.771014
 H        -3.645970         3.099371        -1.146453
 H        -3.287246         2.800008         1.286003
 H        -0.578657         3.052038         0.840813
 H        -1.295036         2.262076         2.286051
