19
Iteration:  1015
 O         0.613623         0.578213         0.677330
 C        -0.754684         0.949840         0.486358
 C        -1.838995         0.002893         0.956394
 C        -2.719612         0.831608        -0.028740
 C        -1.490089         1.034638        -0.844335
 O        -1.628423         2.411877        -1.507937
 C        -2.650776         3.013756        -0.773664
 C        -2.725908         2.319105         0.570450
 C        -1.265199         2.320266         1.107335
 H         0.918580         0.403982        -0.203226
 H        -1.700745        -1.018409         0.697518
 H        -2.195493         0.041702         2.084835
 H        -3.646154         0.409286        -0.486906
 H        -1.161949         0.382397        -1.627656
 H        -2.413199         4.059217        -0.817067
 H        -3.600457         2.940665        -1.253649
 H        -3.415495         2.605292         1.385308
 H        -0.733944         3.274520         0.896817
 H        -1.283821         2.215472         2.208035
