19
Iteration:   239charge 0 multiplicity 1
 O         0.625333         0.654357         0.466117
 C        -0.772790         1.018885         0.464488
 C        -1.862588         0.067843         0.996268
 C        -2.744390         0.870455         0.094862
 C        -1.541694         1.011797        -0.869690
 O        -1.531075         2.295304        -1.498484
 C        -2.624475         3.044788        -0.790473
 C        -2.717998         2.276957         0.535861
 C        -1.299714         2.270879         1.157657
 H         0.822411         0.467861         1.384316
 H        -1.591308        -1.025174         0.616020
 H        -2.095537        -0.027779         2.095209
 H        -3.698982         0.541947        -0.200211
 H        -1.375292         0.303735        -1.647751
 H        -2.257318         4.050468        -0.627935
 H        -3.566024         2.962172        -1.329058
 H        -3.492375         2.446027         1.246352
 H        -0.860945         3.284082         1.020005
 H        -1.437745         1.886077         2.157226
