19
Iteration:  4215
 O         0.617462         0.622380         0.595169
 C        -0.769925         0.948833         0.560384
 C        -1.910981        -0.093492         0.968932
 C        -2.711102         0.795808         0.058048
 C        -1.550503         1.027494        -0.870809
 O        -1.651827         2.301604        -1.579335
 C        -2.634379         3.139292        -0.752447
 C        -2.618634         2.368238         0.530568
 C        -1.243821         2.305764         1.132146
 H         1.181835         1.443733         0.653547
 H        -1.570964        -1.018100         0.422110
 H        -2.123757        -0.159091         2.050253
 H        -3.702063         0.423259        -0.226132
 H        -1.281997         0.339434        -1.757264
 H        -2.416282         4.267600        -0.692339
 H        -3.662565         2.921305        -1.299413
 H        -3.479162         2.544199         1.256591
 H        -0.699120         3.327172         0.941334
 H        -1.238571         2.037654         2.149397
