19
Iteration:    11
 O         0.697066         0.618899         0.630831
 C        -0.718830         0.954412         0.443908
 C        -1.854166        -0.034177         0.910293
 C        -2.772673         0.852301        -0.010205
 C        -1.565542         1.064710        -0.887296
 O        -1.606785         2.380896        -1.535953
 C        -2.610349         3.083333        -0.725652
 C        -2.714313         2.292716         0.570850
 C        -1.248512         2.225859         1.139176
 H         0.703405         0.750062         1.576191
 H        -1.950812        -1.113564         0.569412
 H        -2.224671         0.049298         1.897677
 H        -3.749912         0.494088        -0.220163
 H        -1.562974         0.215021        -1.513855
 H        -2.381951         4.121000        -0.780790
 H        -3.544834         2.955285        -1.183895
 H        -3.549313         2.661318         1.144945
 H        -0.795726         3.192554         0.740286
 H        -1.377685         2.227705         2.226951
