19
Iteration:  1345charge 0 multiplicity 1
 O         0.594374         0.748436         0.616499
 C        -0.718490         0.933117         0.506412
 C        -1.881715        -0.047629         0.952758
 C        -2.794866         0.766065         0.017505
 C        -1.500166         1.052527        -0.849909
 O        -1.675675         2.308239        -1.594421
 C        -2.623535         3.177626        -0.793721
 C        -2.644249         2.346204         0.536664
 C        -1.237631         2.210579         1.202176
 H         1.036724        -0.082076         0.928339
 H        -1.763745        -1.056028         0.548163
 H        -2.072623        -0.143353         2.124422
 H        -3.680081         0.400135        -0.595206
 H        -1.274654         0.208342        -1.556092
 H        -2.134493         4.108069        -0.508728
 H        -3.542509         3.304663        -1.329427
 H        -3.450459         2.580931         1.196155
 H        -0.636125         3.102450         0.820864
 H        -1.190713         2.234677         2.425115
