19
Iteration:  2226
 O         0.606276         0.570022         0.591914
 C        -0.737980         0.956044         0.480066
 C        -1.817953         0.054781         0.941683
 C        -2.736832         0.832413         0.060710
 C        -1.518869         1.056545        -0.814678
 O        -1.613301         2.367751        -1.520017
 C        -2.686966         2.995018        -0.843795
 C        -2.778453         2.286781         0.596844
 C        -1.174161         2.310055         1.106280
 H         1.039839         1.464613         0.521502
 H        -1.690155        -0.957443         0.606977
 H        -2.193471         0.033763         2.080745
 H        -3.655305         0.176918        -0.027398
 H        -1.468999         0.332790        -1.624928
 H        -2.534086         4.065770        -0.711276
 H        -3.628170         2.878541        -1.400529
 H        -3.593204         2.444606         1.457271
 H        -0.530956         3.167864         0.756148
 H        -1.030661         2.304433         2.137817
