19
Iteration:   882
 O         0.571565         0.831866         0.528702
 C        -0.818857         0.940829         0.547070
 C        -1.857895        -0.048282         0.961685
 C        -2.825908         0.794509         0.062441
 C        -1.568473         0.981564        -0.859188
 O        -1.562508         2.361090        -1.500944
 C        -2.588051         3.079164        -0.836779
 C        -2.634589         2.311593         0.524154
 C        -1.243431         2.193078         1.176229
 H         0.987486         0.058325         0.874030
 H        -1.755281        -1.162566         0.596540
 H        -1.900983        -0.142225         2.143694
 H        -3.822408         0.681425        -0.361747
 H        -1.193649         0.330091        -1.671930
 H        -2.226270         4.114912        -0.803899
 H        -3.499327         3.029953        -1.442286
 H        -3.440819         2.686129         1.308639
 H        -0.448519         2.971112         0.992933
 H        -1.216025         2.144215         2.283044
