19
Iteration:    31charge 0 multiplicity 1
 O         0.645802         0.564691         0.775994
 C        -0.740654         0.919992         0.504918
 C        -1.853201        -0.002347         0.931557
 C        -2.739575         0.830181         0.006160
 C        -1.529006         1.114261        -1.046163
 O        -1.729031         2.397508        -1.495694
 C        -2.766092         3.055779        -0.795574
 C        -2.641419         2.319488         0.573857
 C        -1.094870         2.251203         1.060801
 H         0.723021         0.575527         1.761788
 H        -1.701587        -1.073101         0.409351
 H        -1.938152        -0.238309         1.949328
 H        -3.721725         0.621409        -0.345278
 H        -1.230180         0.496576        -1.843299
 H        -2.489278         4.103651        -0.640063
 H        -3.651885         3.215197        -1.400608
 H        -3.344906         2.597757         1.341419
 H        -0.538765         3.184827         0.586110
 H        -1.211617         2.077295         2.143716
