19
Iteration:   556charge 0 multiplicity 1
 O         0.568007         0.575898         0.643738
 C        -0.786473         0.998240         0.563010
 C        -1.834530         0.002148         0.955733
 C        -2.668785         0.796550         0.030289
 C        -1.530977         1.059022        -0.875079
 O        -1.726404         2.273111        -1.638700
 C        -2.592138         3.099499        -0.771250
 C        -2.675710         2.217785         0.554580
 C        -1.232682         2.367133         1.206649
 H         1.081417         1.277976         0.238220
 H        -1.549719        -0.988424         0.541426
 H        -2.069865        -0.072788         2.028243
 H        -3.669690         0.437131        -0.408960
 H        -1.182705         0.291115        -1.634419
 H        -2.071148         4.108407        -0.595499
 H        -3.563759         3.367309        -1.285876
 H        -3.448048         2.571584         1.253255
 H        -0.690157         3.249603         0.755222
 H        -1.266854         2.498130         2.335626
