19
Iteration:  1035charge 0 multiplicity 1
 O         0.641724         0.673937         0.588719
 C        -0.694576         1.039762         0.534968
 C        -1.924025         0.019831         0.948594
 C        -2.732314         0.859109        -0.010688
 C        -1.500877         1.033956        -0.846148
 O        -1.588841         2.231502        -1.592200
 C        -2.658879         3.113296        -0.737296
 C        -2.705676         2.275427         0.503965
 C        -1.317207         2.257570         1.286978
 H         0.890326         0.227514        -0.264412
 H        -1.782037        -0.974696         0.563506
 H        -1.997709        -0.102478         2.064090
 H        -3.697131         0.412429        -0.268483
 H        -1.333637         0.245810        -1.589234
 H        -2.212459         4.090861        -0.539140
 H        -3.529413         3.378195        -1.399750
 H        -3.654078         2.574131         1.089667
 H        -0.612547         3.186496         1.036462
 H        -1.326262         2.108083         2.473814
