19
Iteration:   902
 O         0.615263         0.907366         0.448410
 C        -0.790257         0.970094         0.452221
 C        -1.927263        -0.123864         0.932402
 C        -2.790758         0.855390         0.111283
 C        -1.563950         0.972220        -0.850808
 O        -1.531243         2.210620        -1.559286
 C        -2.449024         3.087971        -0.718190
 C        -2.727843         2.317386         0.573997
 C        -1.348896         2.256639         1.204448
 H         0.800484         0.221491         1.116600
 H        -1.663261        -1.176664         0.488448
 H        -2.326952        -0.327421         1.956643
 H        -3.659299         0.360971        -0.303850
 H        -1.436062         0.118001        -1.559135
 H        -1.884919         3.975550        -0.449938
 H        -3.368224         3.334235        -1.213256
 H        -3.516949         2.806808         1.243515
 H        -0.697878         3.210960         0.929525
 H        -1.228311         2.383870         2.365042
