19
Iteration:   100
 O         0.568409         0.826761         0.372006
 C        -0.828989         0.916466         0.473513
 C        -1.843760        -0.145058         1.108864
 C        -2.848574         0.851354         0.071594
 C        -1.560017         1.023151        -0.896849
 O        -1.442826         2.324062        -1.522227
 C        -2.494201         3.058504        -0.807324
 C        -2.732391         2.347148         0.553294
 C        -1.354810         2.203123         1.226142
 H         0.998745         0.980742         1.220695
 H        -1.688666        -1.114679         0.844052
 H        -2.073885        -0.045281         2.204940
 H        -3.845692         0.464826        -0.314513
 H        -1.253835         0.270996        -1.699723
 H        -2.092802         4.058388        -0.729659
 H        -3.382747         3.044066        -1.280318
 H        -3.397777         2.806772         1.324000
 H        -0.667031         2.977671         1.065928
 H        -1.465828         1.910036         2.278161
