19
Iteration:   188charge 0 multiplicity 1
 O         0.625802         0.526719         0.691484
 C        -0.744124         0.968644         0.511319
 C        -1.815847        -0.028330         0.863792
 C        -2.697206         0.829622        -0.004835
 C        -1.508162         1.069139        -0.940560
 O        -1.731908         2.329652        -1.523879
 C        -2.706262         3.058061        -0.755063
 C        -2.655335         2.346150         0.582635
 C        -1.181730         2.408570         1.137004
 H         0.718111         0.503265         1.654117
 H        -1.764906        -0.956807         0.500734
 H        -2.064864        -0.112610         1.934944
 H        -3.592105         0.308615        -0.497036
 H        -1.305206         0.257615        -1.747905
 H        -2.380982         4.104386        -0.817195
 H        -3.759566         3.027979        -1.233722
 H        -3.463587         2.466536         1.319168
 H        -0.703922         3.089757         0.512445
 H        -1.094022         2.606050         2.234234
