19
Iteration:  3085
 O         0.638816         0.608575         0.562005
 C        -0.725734         0.993055         0.474222
 C        -1.797234        -0.056767         0.957059
 C        -2.769205         0.811912         0.049830
 C        -1.568492         1.065697        -0.882148
 O        -1.702978         2.353376        -1.566657
 C        -2.628049         3.084839        -0.809100
 C        -2.687797         2.297649         0.601903
 C        -1.212560         2.247167         1.249318
 H         1.164181         1.424253         0.783406
 H        -1.766657        -0.995988         0.498052
 H        -2.032119        -0.070995         2.033288
 H        -3.735653         0.527905        -0.362677
 H        -1.283843         0.176167        -1.582991
 H        -2.322151         4.125847        -0.845630
 H        -3.646700         3.144661        -1.290433
 H        -3.649282         2.601353         1.165107
 H        -0.677388         3.054854         0.910045
 H        -1.169125         2.113006         2.345115
