19
Iteration:  4372
 O         0.563825         0.634247         0.611379
 C        -0.796305         0.948119         0.476682
 C        -1.837759        -0.081508         0.949269
 C        -2.774215         0.855656         0.085950
 C        -1.460684         1.035552        -0.912690
 O        -1.659054         2.321138        -1.591283
 C        -2.639643         3.078632        -0.737567
 C        -2.648165         2.318532         0.562510
 C        -1.213202         2.305985         1.154407
 H         0.976606         1.527147         0.717908
 H        -1.705337        -1.083522         0.622470
 H        -2.041089        -0.045084         2.010533
 H        -3.748741         0.498329        -0.161636
 H        -1.207948         0.340775        -1.611537
 H        -2.186289         4.018183        -0.775258
 H        -3.631491         2.936941        -1.291969
 H        -3.467061         2.551630         1.278114
 H        -0.486656         3.103373         1.025011
 H        -1.355162         2.149999         2.191868
