19
Iteration:  2101charge 0 multiplicity 1
 O         0.656687         0.581911         0.530884
 C        -0.699021         0.988786         0.527248
 C        -1.842548         0.028175         1.016860
 C        -2.781581         0.832112         0.027685
 C        -1.589282         1.004928        -0.849321
 O        -1.592799         2.363201        -1.404102
 C        -2.703381         3.052584        -0.849757
 C        -2.730549         2.245608         0.540328
 C        -1.206700         2.332624         1.107337
 H         1.131271         1.313174         0.117323
 H        -1.530328        -1.067550         0.740477
 H        -2.086354         0.031247         2.044604
 H        -3.803446         0.593981        -0.270728
 H        -1.253761         0.284374        -1.643457
 H        -2.536562         4.205398        -0.802539
 H        -3.544809         2.839647        -1.422431
 H        -3.657949         2.370834         1.174972
 H        -0.617120         3.236086         0.840688
 H        -1.298126         2.069447         2.226432
