19
Iteration:   954charge 0 multiplicity 1
 O         0.610433         0.599003         0.612716
 C        -0.747424         0.980020         0.528578
 C        -1.835634        -0.059846         0.985198
 C        -2.775384         0.861434        -0.014352
 C        -1.554621         1.068206        -0.889552
 O        -1.679499         2.300758        -1.648827
 C        -2.584014         3.125631        -0.780887
 C        -2.702913         2.261978         0.574186
 C        -1.226591         2.300447         1.218879
 H         1.083233         1.305068         1.059496
 H        -1.612043        -1.055602         0.566918
 H        -1.966759        -0.117026         2.021348
 H        -3.767017         0.465216        -0.284213
 H        -1.147493         0.357341        -1.643465
 H        -2.087808         4.126569        -0.669629
 H        -3.594602         3.126214        -1.325818
 H        -3.466979         2.451118         1.280621
 H        -0.652222         3.276851         1.099182
 H        -1.382215         2.028547         2.275041
