19
Iteration:  2670charge 0 multiplicity 1
 O         0.527911         0.544514         0.694762
 C        -0.748300         1.000089         0.482167
 C        -1.750314        -0.013710         0.986633
 C        -2.714368         0.865802        -0.003114
 C        -1.533714         1.094183        -0.898855
 O        -1.657352         2.319730        -1.611091
 C        -2.685453         3.016286        -0.742823
 C        -2.676755         2.292616         0.588517
 C        -1.246588         2.318225         1.117370
 H         1.138002         1.149812         0.166006
 H        -1.569543        -1.138893         0.756048
 H        -1.765201         0.181251         2.100915
 H        -3.659506         0.495743        -0.454364
 H        -1.191944         0.310487        -1.517685
 H        -2.300939         4.078980        -0.650340
 H        -3.801705         2.903701        -1.032839
 H        -3.415454         2.631345         1.253297
 H        -0.757915         3.196227         0.716252
 H        -1.158434         2.294968         2.238964
