19
Iteration:     9charge 0 multiplicity 1
 O         0.664286         0.634125         0.590835
 C        -0.735409         0.967239         0.464714
 C        -1.851306        -0.033378         0.918884
 C        -2.765472         0.839346        -0.016975
 C        -1.549628         1.065677        -0.874721
 O        -1.603176         2.366298        -1.525577
 C        -2.587887         3.075972        -0.729856
 C        -2.711170         2.293576         0.570473
 C        -1.245185         2.225086         1.156907
 H         0.708880         0.777911         1.542415
 H        -1.948126        -1.162952         0.550276
 H        -2.224895        -0.017733         1.893032
 H        -3.757616         0.505714        -0.216636
 H        -1.518171         0.210644        -1.489887
 H        -2.365890         4.134112        -0.787580
 H        -3.517972         3.053091        -1.216861
 H        -3.561694         2.670314         1.125444
 H        -0.801925         3.240671         0.705597
 H        -1.440747         2.198160         2.244973
