19
Iteration:  2361charge 0 multiplicity 1
 O         0.597768         0.608415         0.567388
 C        -0.786654         0.972646         0.426374
 C        -1.827202        -0.035517         0.962432
 C        -2.766555         0.813753         0.070282
 C        -1.546482         1.090715        -0.806554
 O        -1.607712         2.320399        -1.474617
 C        -2.682481         2.990694        -0.760332
 C        -2.682201         2.317885         0.534781
 C        -1.171549         2.337148         1.075151
 H         0.924815         1.527912         0.827045
 H        -1.349505        -1.150043         0.726883
 H        -2.149542        -0.013340         2.051722
 H        -3.628484         0.509900        -0.459548
 H        -1.296960         0.224834        -1.515514
 H        -2.635759         4.057560        -0.633850
 H        -3.648390         2.870171        -1.314403
 H        -3.469218         2.686205         1.196217
 H        -0.692317         3.153311         0.646677
 H        -1.151564         2.238940         2.237365
