19
Iteration:  1179charge 0 multiplicity 1
 O         0.565521         0.763518         0.685787
 C        -0.781687         0.917941         0.498638
 C        -1.893345        -0.045294         0.886907
 C        -2.818840         0.777379         0.006276
 C        -1.527341         1.029516        -0.851490
 O        -1.594602         2.371371        -1.570131
 C        -2.592735         3.057373        -0.755998
 C        -2.687928         2.295494         0.565715
 C        -1.146763         2.298136         1.154786
 H         0.980736         0.046452         0.157304
 H        -1.643378        -1.009385         0.648855
 H        -2.179832        -0.049855         1.991795
 H        -3.817832         0.441575        -0.324379
 H        -1.292475         0.256062        -1.569509
 H        -2.386854         4.132999        -0.626743
 H        -3.593208         2.871295        -1.386621
 H        -3.355236         2.584294         1.333917
 H        -0.520999         3.212381         0.811645
 H        -1.156679         2.216710         2.330906
