19
Iteration:   181charge 0 multiplicity 1
 O         0.631215         0.523164         0.685920
 C        -0.725532         0.978264         0.468578
 C        -1.801367         0.005152         0.873275
 C        -2.688689         0.818210        -0.037414
 C        -1.553629         1.049376        -0.933898
 O        -1.728492         2.301581        -1.534778
 C        -2.670631         3.041976        -0.755208
 C        -2.694683         2.365201         0.573016
 C        -1.226828         2.369364         1.169979
 H         0.698075         0.585873         1.672240
 H        -1.477934        -1.099856         0.577845
 H        -1.968443         0.120213         1.950885
 H        -3.698710         0.521112        -0.366108
 H        -1.267172         0.374578        -1.728102
 H        -2.367045         4.129798        -0.706786
 H        -3.659313         3.136874        -1.088070
 H        -3.589504         2.623249         1.241430
 H        -0.611922         3.253521         0.760514
 H        -0.981353         2.441130         2.235815
