19
Iteration:  3295
 O         0.540281         0.628879         0.593201
 C        -0.825457         1.005047         0.466935
 C        -1.775751         0.002580         1.006827
 C        -2.746906         0.815191         0.044142
 C        -1.502301         1.051137        -0.898171
 O        -1.658698         2.356059        -1.453237
 C        -2.689549         3.063174        -0.710623
 C        -2.624524         2.275467         0.512789
 C        -1.200556         2.214678         1.089692
 H         1.083146         1.381869         0.188659
 H        -1.438698        -0.939520         0.504201
 H        -1.967410        -0.009848         2.086304
 H        -3.644101         0.301859        -0.424439
 H        -1.185504         0.296911        -1.656700
 H        -2.460411         4.157200        -0.671025
 H        -3.720028         3.058840        -1.190907
 H        -3.379586         2.487070         1.236710
 H        -0.623627         3.071572         0.671899
 H        -1.207620         2.124193         2.156083
