19
Iteration:  1077charge 0 multiplicity 1
 O         0.620163         0.954560         0.626267
 C        -0.803358         0.927189         0.499509
 C        -1.851342        -0.023301         0.885046
 C        -2.827192         0.842069         0.077627
 C        -1.626924         0.912248        -0.926813
 O        -1.624629         2.228257        -1.577448
 C        -2.419846         3.119112        -0.733408
 C        -2.704058         2.309886         0.572221
 C        -1.266049         2.198883         1.175152
 H         1.077858         0.135535         0.481185
 H        -2.020826        -0.973656         0.320494
 H        -2.147494        -0.208207         1.871930
 H        -3.732618         0.378057        -0.318308
 H        -1.336675        -0.049118        -1.390923
 H        -1.805393         4.018928        -0.442194
 H        -3.328626         3.637683        -1.334023
 H        -3.562841         2.554355         1.304195
 H        -0.540230         3.111385         1.107862
 H        -1.362299         1.866597         2.297619
