19
Iteration:  3081
 O         0.635819         0.624257         0.550362
 C        -0.736673         0.993910         0.490279
 C        -1.808586        -0.029014         0.962203
 C        -2.771595         0.767921         0.044473
 C        -1.571219         1.036182        -0.872318
 O        -1.680925         2.354196        -1.578352
 C        -2.659393         3.119326        -0.828592
 C        -2.714482         2.358393         0.600535
 C        -1.190396         2.188321         1.275565
 H         1.185263         1.395575         0.744485
 H        -1.616822        -1.071248         0.497520
 H        -2.002957        -0.106387         2.014960
 H        -3.729076         0.382078        -0.335327
 H        -1.299462         0.280319        -1.565130
 H        -2.272912         4.143174        -0.761684
 H        -3.679788         3.142073        -1.389809
 H        -3.628002         2.592316         1.152554
 H        -0.555569         3.072588         0.901451
 H        -1.067906         2.110082         2.394599
