19
Iteration:  4060
 O         0.586928         0.590254         0.640216
 C        -0.770330         0.986368         0.449569
 C        -1.819949        -0.020202         0.983086
 C        -2.779860         0.817584         0.030778
 C        -1.544065         1.038381        -0.892211
 O        -1.630738         2.297083        -1.601606
 C        -2.653113         3.088304        -0.716161
 C        -2.701337         2.261635         0.542184
 C        -1.185297         2.332697         1.192533
 H         1.156368         1.306098         0.413673
 H        -1.477759        -0.972750         0.629983
 H        -2.180350         0.023757         2.038527
 H        -3.785859         0.626199        -0.349455
 H        -1.273665         0.198049        -1.516286
 H        -2.301960         4.105109        -0.580385
 H        -3.548884         3.136652        -1.270983
 H        -3.408046         2.667775         1.220878
 H        -0.664136         3.344442         0.771964
 H        -1.184359         2.120664         2.220033
