19
Iteration:   175charge 0 multiplicity 1
 O         0.614747         0.543798         0.669917
 C        -0.685145         1.021087         0.434984
 C        -1.789081         0.015248         0.938443
 C        -2.743132         0.809150        -0.023948
 C        -1.563404         1.063183        -0.930198
 O        -1.720788         2.300134        -1.578313
 C        -2.627408         3.076025        -0.738883
 C        -2.708578         2.323503         0.574377
 C        -1.244956         2.311242         1.147798
 H         0.816389         0.628229         1.630357
 H        -1.349273        -0.939774         0.664340
 H        -2.018392         0.115482         2.006770
 H        -3.798424         0.679041        -0.276185
 H        -1.195486         0.294709        -1.652265
 H        -2.199843         4.047273        -0.564453
 H        -3.704363         3.023829        -1.269324
 H        -3.528054         2.731222         1.105087
 H        -0.675459         3.243429         1.071004
 H        -1.127160         2.055105         2.252180
