19
Iteration:  3288
 O         0.516049         0.598196         0.608367
 C        -0.773029         1.002322         0.451868
 C        -1.738987         0.052298         0.971522
 C        -2.764322         0.782616        -0.003365
 C        -1.543375         1.073061        -0.878985
 O        -1.664390         2.380137        -1.490994
 C        -2.633949         3.003848        -0.719810
 C        -2.703703         2.252192         0.571080
 C        -1.180344         2.273104         1.116303
 H         1.056021         1.361128         0.262732
 H        -1.457893        -1.027087         0.633590
 H        -1.885878         0.079160         2.062780
 H        -3.605670         0.320811        -0.497731
 H        -1.459540         0.384673        -1.666513
 H        -2.314552         4.129510        -0.583557
 H        -3.626376         2.799249        -1.163342
 H        -3.457459         2.551764         1.301600
 H        -0.499957         3.083531         0.762957
 H        -1.143251         2.207282         2.182350
