19
Iteration:  1976
 O         0.611573         0.666646         0.478652
 C        -0.787732         0.992126         0.553909
 C        -1.822411        -0.053092         0.985450
 C        -2.748501         0.811755         0.071290
 C        -1.578611         1.069113        -0.825744
 O        -1.529779         2.326594        -1.474391
 C        -2.647183         3.060181        -0.771042
 C        -2.757811         2.284872         0.505514
 C        -1.228749         2.267452         1.161153
 H         0.979080         1.388158        -0.013891
 H        -1.564653        -1.014955         0.624260
 H        -2.194325        -0.166518         2.088782
 H        -3.748713         0.383070        -0.274559
 H        -1.430811         0.228944        -1.516490
 H        -2.363518         4.117986        -0.754005
 H        -3.470099         2.930772        -1.411560
 H        -3.562338         2.525114         1.186494
 H        -0.693558         3.157711         0.726622
 H        -1.218734         2.186893         2.386137
