19
Iteration:  3963
 O         0.645763         0.655482         0.551859
 C        -0.724105         0.973821         0.489996
 C        -1.896703        -0.034337         0.920130
 C        -2.838165         0.848987         0.159949
 C        -1.504402         1.007947        -0.936703
 O        -1.634380         2.257785        -1.516552
 C        -2.524814         3.018826        -0.742214
 C        -2.682713         2.346472         0.555593
 C        -1.316527         2.333933         1.193732
 H         1.100231         1.459589         0.352904
 H        -1.669255        -0.909942         0.373680
 H        -2.117159        -0.260012         1.985252
 H        -3.799396         0.442253        -0.168284
 H        -1.277008         0.281801        -1.709301
 H        -2.056232         4.002056        -0.602866
 H        -3.521029         3.264253        -1.342124
 H        -3.595129         2.654899         0.984509
 H        -0.959111         3.259391         0.935265
 H        -1.251748         2.058748         2.217142
