19
Iteration:   643
 O         0.664495         0.551853         0.611073
 C        -0.742578         1.004144         0.524625
 C        -1.858957         0.012908         1.052940
 C        -2.756717         0.822938         0.012284
 C        -1.514262         1.014426        -0.919323
 O        -1.665202         2.356753        -1.583871
 C        -2.631118         3.073372        -0.745752
 C        -2.716239         2.279140         0.487433
 C        -1.263855         2.277784         1.165462
 H         1.117469         1.363472         0.338569
 H        -1.571236        -0.945508         0.722727
 H        -2.157438         0.147246         2.113616
 H        -3.848688         0.556979        -0.283349
 H        -1.154147         0.094047        -1.487161
 H        -2.316900         4.140426        -0.615313
 H        -3.560291         3.065345        -1.221349
 H        -3.569546         2.529720         1.208487
 H        -0.668637         3.165991         0.860174
 H        -1.268627         2.339626         2.266930
