19
Iteration:  3118charge 0 multiplicity 1
 O         0.569949         0.582200         0.667503
 C        -0.763921         1.012679         0.482809
 C        -1.746550        -0.050967         0.924236
 C        -2.766160         0.774499        -0.015679
 C        -1.579602         1.068879        -0.908276
 O        -1.718534         2.347824        -1.523992
 C        -2.671796         3.146851        -0.748043
 C        -2.706446         2.236345         0.606588
 C        -1.124434         2.306956         1.132467
 H         1.176525         1.381154         0.535503
 H        -1.595542        -1.016112         0.575046
 H        -2.056532        -0.208323         1.980178
 H        -3.704960         0.402741        -0.426948
 H        -1.110961         0.238006        -1.590982
 H        -2.238077         4.128441        -0.843828
 H        -3.742738         3.114320        -1.181617
 H        -3.459749         2.573097         1.396677
 H        -0.592664         3.051266         0.655639
 H        -0.813357         2.327322         2.191582
