19
Iteration:  3965
 O         0.636086         0.648886         0.555901
 C        -0.711169         0.981058         0.459753
 C        -1.897201        -0.040633         0.935703
 C        -2.840271         0.836620         0.172754
 C        -1.510473         1.007665        -0.925172
 O        -1.640862         2.272633        -1.506858
 C        -2.526283         3.026900        -0.768531
 C        -2.662993         2.330828         0.556328
 C        -1.310078         2.333194         1.188938
 H         1.074192         1.508602         0.354512
 H        -1.648432        -0.934667         0.374103
 H        -2.215291        -0.246218         1.969994
 H        -3.713135         0.419163        -0.218178
 H        -1.285614         0.291703        -1.741872
 H        -2.067987         3.989629        -0.583448
 H        -3.441485         3.274107        -1.352231
 H        -3.611741         2.695453         1.003260
 H        -1.035606         3.261511         0.932598
 H        -1.289343         2.101274         2.316178
