19
Iteration:  1631charge 0 multiplicity 1
 O         0.581320         0.641773         0.629698
 C        -0.776007         1.024562         0.543114
 C        -1.876233        -0.059486         0.894109
 C        -2.723972         0.758726         0.029790
 C        -1.484630         1.113675        -0.879982
 O        -1.720475         2.295218        -1.594761
 C        -2.690688         3.075207        -0.770289
 C        -2.618376         2.311302         0.536314
 C        -1.145974         2.262857         1.167581
 H         0.752511         0.593563         1.556356
 H        -1.457801        -0.966148         0.461155
 H        -2.197621         0.108287         1.941562
 H        -3.643258         0.573580        -0.334820
 H        -1.155660         0.290756        -1.540412
 H        -2.297097         4.069724        -0.675318
 H        -3.790634         3.260034        -1.307288
 H        -3.342671         2.642428         1.259054
 H        -0.617749         3.081197         0.848891
 H        -1.050522         2.327969         2.250976
