19
Iteration:  3435charge 0 multiplicity 1
 O         0.655658         0.548949         0.626545
 C        -0.708164         1.015890         0.425790
 C        -1.811955        -0.065587         0.958315
 C        -2.761754         0.895675         0.057289
 C        -1.522869         1.045323        -0.889055
 O        -1.684317         2.367726        -1.454938
 C        -2.693453         3.027089        -0.785896
 C        -2.724302         2.321827         0.568972
 C        -1.224207         2.314607         1.112866
 H         1.387135         1.163079         0.396572
 H        -1.678332        -1.080063         0.571572
 H        -1.958756        -0.058831         2.028677
 H        -3.673686         0.467313        -0.436935
 H        -1.399724         0.168864        -1.639849
 H        -2.506836         4.068079        -0.833166
 H        -3.711674         2.903937        -1.282239
 H        -3.563992         2.598332         1.263582
 H        -0.678005         3.174733         0.839425
 H        -1.211643         2.088361         2.245299
