19
Iteration:   688charge 0 multiplicity 1
 O         0.625279         0.470229         0.846366
 C        -0.659832         0.993357         0.565151
 C        -1.837265        -0.021659         0.843147
 C        -2.762077         0.839071        -0.015935
 C        -1.591602         1.069260        -0.934173
 O        -1.700281         2.326936        -1.596737
 C        -2.717821         3.016147        -0.744653
 C        -2.628694         2.315092         0.617711
 C        -1.196760         2.427448         1.035913
 H         1.252034         1.128385         0.559323
 H        -1.675207        -0.806504         0.209721
 H        -2.010786        -0.315265         1.888745
 H        -3.780450         0.386446        -0.370376
 H        -1.418705         0.382426        -1.840300
 H        -2.506897         4.117783        -0.705990
 H        -3.688107         2.869746        -1.014014
 H        -3.273317         2.736722         1.426894
 H        -0.659669         3.264649         0.567738
 H        -1.126223         2.626795         2.159361
