19
Iteration:  3943
 O         0.565511         0.679564         0.582589
 C        -0.766430         1.004594         0.467093
 C        -1.791831        -0.066842         0.950294
 C        -2.788107         0.848918         0.035694
 C        -1.613516         1.045475        -0.807280
 O        -1.616337         2.251517        -1.605134
 C        -2.580412         3.111592        -0.806224
 C        -2.655452         2.315561         0.605892
 C        -1.232846         2.214904         1.247239
 H         0.997173         1.479426         0.238145
 H        -1.654093        -1.039012         0.497030
 H        -2.124648        -0.079600         1.987677
 H        -3.604247         0.451786        -0.496045
 H        -1.335666         0.178055        -1.419578
 H        -2.232964         4.117778        -0.709364
 H        -3.466049         3.162631        -1.422498
 H        -3.401719         2.681497         1.327891
 H        -0.629993         3.030051         0.944306
 H        -1.407234         2.243206         2.374615
