19
Iteration:  1624
 O         0.520397         0.620371         0.611234
 C        -0.718594         1.007219         0.476059
 C        -1.855077        -0.041696         0.961235
 C        -2.656704         0.790752         0.054404
 C        -1.465252         1.132397        -0.880683
 O        -1.717906         2.330219        -1.583348
 C        -2.689145         3.069390        -0.749413
 C        -2.621073         2.310057         0.500291
 C        -1.205928         2.280822         1.140624
 H         0.638594         0.604500         1.574025
 H        -1.558362        -1.095799         0.517461
 H        -2.252253        -0.175577         1.973962
 H        -3.757502         0.464722        -0.217094
 H        -1.195546         0.226971        -1.425460
 H        -2.247101         4.076526        -0.614324
 H        -3.526824         3.048283        -1.314406
 H        -3.474067         2.449387         1.280816
 H        -0.527468         3.125392         0.738703
 H        -1.214226         2.301162         2.274312
