19
Iteration:  4771
 O         0.568913         0.582948         0.669224
 C        -0.781245         0.967167         0.471927
 C        -1.894581        -0.052352         0.957909
 C        -2.761225         0.815337         0.108165
 C        -1.565544         1.099953        -0.927567
 O        -1.610731         2.361934        -1.536773
 C        -2.606453         3.041773        -0.763970
 C        -2.687852         2.299201         0.558954
 C        -1.192835         2.272056         1.095821
 H         1.161848         1.321527         0.374978
 H        -1.882918        -1.000742         0.437738
 H        -1.915830        -0.002665         2.038897
 H        -3.642244         0.548742        -0.404734
 H        -1.149271         0.446533        -1.651122
 H        -2.364793         4.029194        -0.593177
 H        -3.542079         3.063675        -1.204330
 H        -3.346390         2.610447         1.314809
 H        -0.591031         2.995897         0.592989
 H        -1.001167         2.364349         2.237361
