19
Iteration:   227
 O         0.586512         0.662946         0.550973
 C        -0.713927         0.960752         0.469466
 C        -1.877439        -0.012513         1.000333
 C        -2.755408         0.808462         0.006251
 C        -1.544497         1.046400        -0.926940
 O        -1.576349         2.340019        -1.426117
 C        -2.670792         3.053550        -0.798074
 C        -2.687236         2.289884         0.603532
 C        -1.218726         2.319408         1.092751
 H         0.854626         0.342140         1.447389
 H        -1.885750        -1.099310         0.471415
 H        -2.122484        -0.038125         2.087174
 H        -3.653426         0.443102        -0.394314
 H        -1.344959         0.271462        -1.600602
 H        -2.590786         4.129321        -1.012939
 H        -3.551666         2.813281        -1.369614
 H        -3.399027         2.648888         1.332507
 H        -0.583021         3.228598         0.769145
 H        -1.081195         2.443853         2.176324
