19
Iteration:  2545
 O         0.569000         0.589178         0.724674
 C        -0.732173         0.942427         0.534951
 C        -1.766862         0.022805         0.913784
 C        -2.707415         0.802708        -0.014789
 C        -1.542972         1.044674        -0.936675
 O        -1.735308         2.317794        -1.554899
 C        -2.656191         2.995809        -0.784279
 C        -2.637411         2.386612         0.628484
 C        -1.239219         2.321401         1.131817
 H         0.930931         1.353686         0.151966
 H        -1.607799        -0.958711         0.587176
 H        -1.975110        -0.034601         1.923966
 H        -3.623784         0.385557        -0.363652
 H        -1.191702         0.205091        -1.632969
 H        -2.542841         4.049287        -0.690409
 H        -3.738308         2.953715        -1.325064
 H        -3.476613         2.752157         1.310269
 H        -0.583957         3.096853         0.721682
 H        -0.961090         2.302233         2.201020
