19
Iteration:   838charge 0 multiplicity 1
 O         0.563602         0.504871         0.748064
 C        -0.766129         1.029615         0.570036
 C        -1.773014        -0.005123         0.965016
 C        -2.712700         0.770389        -0.015142
 C        -1.464004         1.129590        -0.888177
 O        -1.679996         2.391009        -1.596860
 C        -2.774571         3.092990        -0.757316
 C        -2.638439         2.269916         0.546405
 C        -1.177445         2.342635         1.086879
 H         0.774463        -0.017690        -0.010562
 H        -1.440761        -1.067085         0.624388
 H        -2.225502        -0.173694         2.022487
 H        -3.666651         0.320168        -0.250346
 H        -1.235444         0.277184        -1.568723
 H        -2.376712         4.105966        -0.590559
 H        -3.693681         3.087611        -1.413807
 H        -3.503766         2.628126         1.254871
 H        -0.720611         3.227032         0.550964
 H        -1.187233         2.540337         2.150046
