19
Iteration:  4684charge 0 multiplicity 1
 O         0.610049         0.675729         0.670892
 C        -0.739307         0.943669         0.502567
 C        -1.896141        -0.030198         0.900320
 C        -2.774336         0.887021         0.069565
 C        -1.532035         1.031806        -0.950596
 O        -1.700233         2.269153        -1.619523
 C        -2.532215         3.113616        -0.703534
 C        -2.716169         2.327883         0.598223
 C        -1.228641         2.203764         1.144230
 H         1.102155         1.453190         0.361249
 H        -1.867455        -1.092736         0.644942
 H        -2.142995         0.088657         1.967181
 H        -3.613994         0.407670        -0.299237
 H        -1.139552         0.235692        -1.523480
 H        -2.114831         4.065220        -0.643960
 H        -3.454987         3.243938        -1.358126
 H        -3.451679         2.522477         1.299440
 H        -0.624036         3.044750         0.968289
 H        -1.043488         1.997898         2.304711
