19
Iteration:   851
 O         0.644051         0.537522         0.697744
 C        -0.686543         0.976894         0.509703
 C        -1.857409         0.029113         0.933116
 C        -2.768908         0.855080         0.059648
 C        -1.467761         1.074336        -0.930040
 O        -1.669123         2.391445        -1.548921
 C        -2.650963         2.989154        -0.797483
 C        -2.735204         2.252184         0.567974
 C        -1.273771         2.396973         1.153370
 H         0.727855        -0.309661         0.155794
 H        -1.685081        -0.969361         0.558138
 H        -1.882184         0.098258         2.087382
 H        -3.727879         0.604783        -0.456565
 H        -0.973902         0.471270        -1.721483
 H        -2.473059         4.098710        -0.683186
 H        -3.735003         2.895584        -1.242171
 H        -3.517962         2.481607         1.374034
 H        -0.712306         3.186544         0.693153
 H        -1.146148         2.515644         2.177443
