19
Iteration:  3161
 O         0.609060         0.614515         0.557731
 C        -0.714232         1.050703         0.438063
 C        -1.841374         0.024886         0.885844
 C        -2.788201         0.836766        -0.015430
 C        -1.564588         1.073668        -0.842681
 O        -1.637234         2.266072        -1.455843
 C        -2.626982         3.028173        -0.766828
 C        -2.694724         2.277880         0.644209
 C        -1.213480         2.285969         1.216846
 H         1.186523         1.189438         0.003472
 H        -1.606553        -0.950939         0.570958
 H        -1.924698         0.005296         1.981360
 H        -3.752818         0.530913        -0.421208
 H        -1.313123         0.264775        -1.631075
 H        -2.436507         4.071131        -0.719316
 H        -3.581323         2.921843        -1.431489
 H        -3.636933         2.384635         1.259775
 H        -0.835372         3.234930         0.962627
 H        -1.139609         2.137936         2.352972
