19
Iteration:  3027
 O         0.664289         0.699155         0.572269
 C        -0.768841         1.015601         0.496519
 C        -1.823483        -0.017178         0.913036
 C        -2.846636         0.748941         0.019505
 C        -1.548917         1.041848        -0.880423
 O        -1.591311         2.282735        -1.536722
 C        -2.644848         3.102458        -0.659497
 C        -2.722907         2.284346         0.629545
 C        -1.202666         2.285047         1.142912
 H         1.037440         1.019834        -0.236736
 H        -1.772775        -1.065993         0.517673
 H        -2.146447        -0.125335         1.901830
 H        -3.798814         0.376411        -0.390249
 H        -1.304350         0.232589        -1.555572
 H        -2.132564         4.023758        -0.556311
 H        -3.554697         3.138170        -1.363210
 H        -3.587357         2.710784         1.237290
 H        -0.620473         3.149405         1.000040
 H        -1.399030         2.116264         2.216015
