19
Iteration:  1820charge 0 multiplicity 1
 O         0.621545         0.704805         0.452980
 C        -0.749713         1.018349         0.468949
 C        -1.846329         0.021821         0.988838
 C        -2.761713         0.827969         0.037298
 C        -1.549242         1.003168        -0.911853
 O        -1.563215         2.238180        -1.498291
 C        -2.640503         3.034509        -0.703049
 C        -2.661042         2.279041         0.568893
 C        -1.300604         2.357215         1.189658
 H         0.657151         0.287091         1.357067
 H        -1.579429        -0.980790         0.477795
 H        -2.125780        -0.117851         2.018293
 H        -3.824069         0.638127        -0.235314
 H        -1.497675         0.343696        -1.796108
 H        -2.300709         4.042769        -0.660116
 H        -3.509737         3.019289        -1.314905
 H        -3.596663         2.577094         1.199084
 H        -0.768096         3.292099         0.975877
 H        -1.087252         2.126607         2.305021
