19
Iteration:  2093
 O         0.656430         0.572070         0.566957
 C        -0.741873         0.954100         0.565700
 C        -1.805266         0.006466         0.998521
 C        -2.763808         0.826906         0.083907
 C        -1.559112         1.022999        -0.827646
 O        -1.626101         2.425426        -1.470450
 C        -2.700340         3.039900        -0.824985
 C        -2.695504         2.249274         0.494008
 C        -1.250144         2.281608         1.070249
 H         1.227705         1.214616         0.106982
 H        -1.720116        -1.065519         0.698447
 H        -1.979459         0.155101         2.098712
 H        -3.668897         0.366949        -0.366965
 H        -1.266842         0.384324        -1.643386
 H        -2.504829         4.127764        -0.813840
 H        -3.724580         3.006919        -1.356265
 H        -3.327029         2.617749         1.400351
 H        -0.759619         3.222926         0.793207
 H        -1.381890         2.248382         2.099429
