19
Iteration:   672
 O         0.542752         0.455580         0.845454
 C        -0.722724         1.033831         0.481560
 C        -1.760395         0.034135         0.904722
 C        -2.682914         0.847268         0.017987
 C        -1.522459         1.087740        -0.968120
 O        -1.769034         2.358411        -1.560899
 C        -2.764054         3.058230        -0.763332
 C        -2.666432         2.288863         0.512805
 C        -1.109119         2.323281         1.097658
 H         1.260472         0.926975         0.437685
 H        -1.478884        -1.082052         0.655640
 H        -2.040961        -0.058930         1.980865
 H        -3.671614         0.627702        -0.260272
 H        -1.205439         0.225620        -1.513624
 H        -2.496844         4.109081        -0.747054
 H        -3.777038         3.000076        -1.389056
 H        -3.550026         2.408366         1.275865
 H        -0.496212         3.176328         0.724530
 H        -1.006967         2.378231         2.161644
