19
Iteration:  3484charge 0 multiplicity 1
 O         0.636327         0.702965         0.555325
 C        -0.752150         0.907068         0.495157
 C        -1.803736        -0.094025         1.008074
 C        -2.769238         0.764287         0.034485
 C        -1.549214         1.035203        -0.844429
 O        -1.663567         2.294374        -1.565946
 C        -2.593634         3.151566        -0.758967
 C        -2.671522         2.361973         0.568793
 C        -1.319656         2.245431         1.179021
 H         1.047282         1.344935        -0.046841
 H        -1.642191        -1.190825         0.694095
 H        -2.045738        -0.068505         2.130689
 H        -3.769849         0.479835        -0.347918
 H        -1.343119         0.296774        -1.580707
 H        -2.113012         4.162690        -0.611750
 H        -3.473519         3.313999        -1.313365
 H        -3.489569         2.695414         1.207358
 H        -0.696633         3.221643         0.885491
 H        -1.343380         2.141897         2.241838
