19
Iteration:  4447
 O         0.609404         0.587491         0.624547
 C        -0.721106         1.012331         0.490179
 C        -1.891413        -0.054662         1.004396
 C        -2.757413         0.797795         0.038647
 C        -1.511748         1.055757        -0.915425
 O        -1.589192         2.293067        -1.573680
 C        -2.735146         3.122136        -0.758611
 C        -2.664748         2.276536         0.542072
 C        -1.239879         2.287521         1.213484
 H         1.116364         1.115746         0.010238
 H        -1.692361        -1.028638         0.618413
 H        -2.001782         0.020282         2.083663
 H        -3.724251         0.610021        -0.321609
 H        -1.218864         0.388714        -1.635193
 H        -2.360672         4.175075        -0.583873
 H        -3.479390         3.241641        -1.487426
 H        -3.459265         2.755560         1.191853
 H        -0.695333         3.262790         0.991570
 H        -1.365000         2.210022         2.218267
