19
Iteration:  3290
 O         0.520687         0.607809         0.604236
 C        -0.798536         1.008572         0.456351
 C        -1.739545         0.040559         0.982775
 C        -2.767456         0.793306         0.006554
 C        -1.527852         1.069136        -0.877044
 O        -1.666046         2.375170        -1.477504
 C        -2.644730         3.021529        -0.716519
 C        -2.678395         2.258324         0.545841
 C        -1.179084         2.250904         1.099700
 H         1.017913         1.340711         0.255110
 H        -1.447849        -0.934009         0.606610
 H        -1.900469         0.067635         2.061847
 H        -3.571169         0.305629        -0.490970
 H        -1.403461         0.341987        -1.705032
 H        -2.362653         4.070531        -0.611420
 H        -3.630304         2.847367        -1.136146
 H        -3.462560         2.530670         1.312565
 H        -0.528325         3.041065         0.729585
 H        -1.178150         2.170237         2.254709
