19
Iteration:  3455
 O         0.571488         0.588867         0.575644
 C        -0.739450         0.981186         0.509379
 C        -1.803686         0.041395         0.957494
 C        -2.751399         0.753339        -0.016553
 C        -1.507395         1.088780        -0.902328
 O        -1.622651         2.281069        -1.559455
 C        -2.679037         3.051052        -0.677359
 C        -2.680977         2.286850         0.599186
 C        -1.241815         2.343808         1.185671
 H         1.088176         1.175968        -0.053981
 H        -1.614445        -0.885781         0.555341
 H        -2.215130         0.063031         1.968911
 H        -3.764405         0.428077        -0.267287
 H        -1.216668         0.246404        -1.633260
 H        -2.289922         4.086560        -0.508528
 H        -3.648013         3.096075        -1.308282
 H        -3.519639         2.556175         1.331968
 H        -0.816630         3.178950         0.767725
 H        -1.153358         2.390524         2.298197
