19
Iteration:  2384charge 0 multiplicity 1
 O         0.634689         0.557676         0.539311
 C        -0.734193         0.977172         0.536583
 C        -1.820080         0.048092         1.001090
 C        -2.775680         0.811062         0.061197
 C        -1.530945         0.998038        -0.930877
 O        -1.599738         2.398900        -1.487029
 C        -2.715201         3.005983        -0.841718
 C        -2.732451         2.315762         0.597199
 C        -1.217720         2.323125         1.158317
 H         1.192106         1.336924         0.727357
 H        -1.856479        -1.120576         0.561932
 H        -1.825054         0.008192         2.114712
 H        -3.759560         0.409365        -0.166713
 H        -1.047352         0.331669        -1.698824
 H        -2.642590         4.096149        -1.043008
 H        -3.759391         2.891263        -1.279462
 H        -3.511157         2.383934         1.292100
 H        -0.775613         3.096215         0.631890
 H        -1.072015         2.328041         2.316112
