19
Iteration:   734charge 0 multiplicity 1
 O         0.629062         0.671375         0.514076
 C        -0.775314         0.996735         0.445404
 C        -1.885314        -0.006087         0.981311
 C        -2.760190         0.806909         0.074580
 C        -1.584758         1.016374        -0.921171
 O        -1.570807         2.275831        -1.519373
 C        -2.515240         3.055976        -0.741248
 C        -2.702199         2.305964         0.561582
 C        -1.334126         2.255024         1.209557
 H         1.108869         1.498354         0.561637
 H        -1.694922        -1.054085         0.865703
 H        -2.258260         0.301120         1.926997
 H        -3.758387         0.424321        -0.270269
 H        -1.256926         0.244623        -1.624716
 H        -2.120607         4.066759        -0.592592
 H        -3.416614         3.134975        -1.289992
 H        -3.565650         2.611553         1.025603
 H        -0.775610         3.197508         1.072065
 H        -1.321062         2.060783         2.359339
