19
Iteration:  4320charge 0 multiplicity 1
 O         0.561775         0.573460         0.638393
 C        -0.779767         1.025282         0.458911
 C        -1.812144        -0.040273         1.028080
 C        -2.738186         0.814527         0.065282
 C        -1.503347         1.060803        -0.868560
 O        -1.634740         2.386131        -1.527543
 C        -2.669610         3.088476        -0.781985
 C        -2.682600         2.275374         0.521681
 C        -1.234806         2.270012         1.124983
 H         1.248144         1.099390         0.130496
 H        -1.605281        -1.036108         0.666354
 H        -2.174195        -0.177150         2.044492
 H        -3.546378         0.346913        -0.499455
 H        -1.454004         0.344186        -1.675288
 H        -2.339508         4.104142        -0.710259
 H        -3.620300         2.991636        -1.341399
 H        -3.378902         2.570322         1.235070
 H        -0.611265         3.048904         0.718269
 H        -1.123273         2.242732         2.356139
