19
Iteration:  4391
 O         0.638442         0.683151         0.618068
 C        -0.744610         0.962884         0.518021
 C        -1.840752        -0.020176         0.951918
 C        -2.776697         0.808831         0.054819
 C        -1.653530         1.018335        -0.909159
 O        -1.637173         2.316488        -1.567278
 C        -2.556619         3.087771        -0.826866
 C        -2.671566         2.319461         0.580222
 C        -1.257260         2.180781         1.222438
 H         1.138047         1.542354         0.509467
 H        -1.766451        -1.029936         0.488074
 H        -1.961195        -0.245662         2.034479
 H        -3.755820         0.498351        -0.282959
 H        -1.376734         0.252530        -1.665956
 H        -2.085889         4.131738        -0.633105
 H        -3.503615         3.066287        -1.281455
 H        -3.520910         2.907830         1.058682
 H        -0.812249         3.181183         0.860354
 H        -1.178351         2.218920         2.277774
