19
Iteration:  2577charge 0 multiplicity 1
 O         0.633880         0.635978         0.615252
 C        -0.737745         0.972143         0.522478
 C        -1.832881         0.020030         0.929664
 C        -2.740769         0.825880         0.114413
 C        -1.488587         1.013175        -0.884042
 O        -1.736138         2.280873        -1.576859
 C        -2.596127         3.047589        -0.767065
 C        -2.684247         2.314745         0.525515
 C        -1.296223         2.302350         1.149999
 H         0.978619         1.465702         0.344342
 H        -1.871116        -0.875085         0.487159
 H        -1.891218        -0.144110         1.974622
 H        -3.648623         0.338518        -0.122524
 H        -1.147775         0.238259        -1.642138
 H        -2.054784         3.916548        -0.407563
 H        -3.463842         3.298666        -1.500076
 H        -3.515938         2.641833         1.224752
 H        -0.787481         3.295895         1.033607
 H        -1.260719         2.016792         2.175103
