19
Iteration:  1475
 O         0.641202         0.529993         0.676770
 C        -0.735458         1.018211         0.505520
 C        -1.849381        -0.022806         0.901108
 C        -2.759946         0.838144         0.043293
 C        -1.509977         1.052206        -0.877198
 O        -1.648023         2.344250        -1.506201
 C        -2.651064         3.065717        -0.820048
 C        -2.715949         2.325910         0.543984
 C        -1.251822         2.282548         1.161422
 H         1.076784         1.415948         0.729086
 H        -1.773956        -1.045609         0.556948
 H        -1.953505        -0.214587         2.080479
 H        -3.644135         0.507461        -0.586167
 H        -1.517645         0.181874        -1.545439
 H        -2.436981         4.137852        -0.886228
 H        -3.667186         3.054180        -1.359026
 H        -3.409418         2.645091         1.315475
 H        -0.737432         3.051195         0.568260
 H        -0.958226         2.373095         2.179231
