19
Iteration:  1123charge 0 multiplicity 1
 O         0.575111         0.634203         0.645370
 C        -0.785070         0.992353         0.565789
 C        -1.846938         0.030413         0.970310
 C        -2.705073         0.826021        -0.008184
 C        -1.453270         1.138045        -0.892963
 O        -1.657059         2.322298        -1.534654
 C        -2.628661         3.026020        -0.805071
 C        -2.693721         2.288007         0.518304
 C        -1.223287         2.249452         1.165848
 H         0.615780        -0.258810         0.208278
 H        -1.413932        -0.827991         0.558627
 H        -2.164319        -0.122308         2.031463
 H        -3.724931         0.521540        -0.240973
 H        -1.266745         0.408719        -1.650938
 H        -2.384640         4.094300        -0.731971
 H        -3.699535         3.020368        -1.354979
 H        -3.370850         2.549200         1.332689
 H        -0.751133         3.261035         0.834504
 H        -1.308263         2.269367         2.349273
