19
Iteration:  3493charge 0 multiplicity 1
 O         0.651398         0.708520         0.553759
 C        -0.768152         0.970794         0.528852
 C        -1.790404         0.000086         0.937171
 C        -2.794015         0.872379         0.043324
 C        -1.574302         1.003124        -0.952044
 O        -1.625224         2.220361        -1.531718
 C        -2.595601         3.124523        -0.706807
 C        -2.724220         2.332840         0.560011
 C        -1.302029         2.214165         1.214887
 H         1.097658         1.405485         0.055398
 H        -1.758538        -1.123534         0.522436
 H        -2.035783        -0.111542         2.012285
 H        -3.639971         0.151686        -0.168714
 H        -1.415210         0.169154        -1.557072
 H        -2.057836         4.036611        -0.652839
 H        -3.527162         3.220103        -1.208742
 H        -3.442840         2.726947         1.204034
 H        -0.518435         3.064874         0.917823
 H        -1.352125         2.200148         2.291950
