19
Iteration:  2177charge 0 multiplicity 1
 O         0.591810         0.667858         0.706450
 C        -0.753836         1.067813         0.483232
 C        -1.807218        -0.007238         0.996158
 C        -2.750798         0.867953         0.071807
 C        -1.578472         1.063601        -0.961451
 O        -1.781154         2.216153        -1.691763
 C        -2.613179         3.102908        -0.743677
 C        -2.627539         2.223135         0.536176
 C        -1.207402         2.234966         1.225747
 H         1.179867         1.333391         0.310021
 H        -1.529255        -1.003408         0.516246
 H        -1.878681        -0.141578         2.021610
 H        -3.688606         0.485718        -0.305833
 H        -1.236221         0.261211        -1.652334
 H        -1.867436         3.903027        -0.473666
 H        -3.583952         3.384042        -1.118042
 H        -3.458806         2.562024         1.115356
 H        -0.610821         3.136074         0.948660
 H        -1.061017         2.111906         2.378617
