19
Iteration:  2412charge 0 multiplicity 1
 O         0.586478         0.617797         0.604646
 C        -0.713526         1.039800         0.524041
 C        -1.842469        -0.024020         0.979806
 C        -2.699956         0.811970         0.087948
 C        -1.543029         1.002487        -0.915457
 O        -1.700037         2.320909        -1.566153
 C        -2.634815         3.018635        -0.762084
 C        -2.634726         2.275007         0.548676
 C        -1.269751         2.348876         1.118534
 H         1.280473         1.283704         0.301287
 H        -1.797482        -0.937156         0.555130
 H        -2.031856        -0.204856         2.040506
 H        -3.654106         0.435045        -0.304151
 H        -1.265968         0.173747        -1.610884
 H        -2.271324         4.064441        -0.621003
 H        -3.670051         3.329994        -1.174519
 H        -3.419139         2.454019         1.401329
 H        -0.705244         3.340034         0.927028
 H        -1.405241         2.183083         2.164171
