19
Iteration:  2885
 O         0.606051         0.757201         0.479850
 C        -0.741410         0.965042         0.510250
 C        -1.812763        -0.092141         0.975761
 C        -2.737205         0.788569         0.070577
 C        -1.555588         1.016625        -0.907352
 O        -1.663033         2.330663        -1.516722
 C        -2.598916         3.074197        -0.831400
 C        -2.668019         2.321312         0.553152
 C        -1.289644         2.324653         1.260460
 H         0.846069         0.062673         1.042250
 H        -1.689726        -1.137515         0.610007
 H        -2.301814        -0.027748         1.906068
 H        -3.766462         0.411116        -0.160159
 H        -1.094836         0.244275        -1.702912
 H        -2.162292         3.989740        -0.522874
 H        -3.515294         3.384488        -1.349522
 H        -3.653382         2.531479         1.202764
 H        -0.627981         3.012656         0.896069
 H        -1.094507         2.170952         2.357860
