19
Iteration:  3614
 O         0.711435         0.599169         0.566374
 C        -0.775992         0.953392         0.521133
 C        -1.852569        -0.023974         0.971072
 C        -2.739641         0.879150         0.056720
 C        -1.502259         0.993967        -0.955645
 O        -1.652808         2.273500        -1.522040
 C        -2.584002         3.091981        -0.751370
 C        -2.769621         2.331998         0.611459
 C        -1.340531         2.305290         1.207921
 H         1.060175         1.457139         0.143491
 H        -1.598682        -0.887368         0.301518
 H        -1.988613        -0.013246         2.075875
 H        -3.718069         0.563209        -0.428350
 H        -1.383989         0.176392        -1.608452
 H        -2.080806         4.103941        -0.774485
 H        -3.669863         2.937085        -1.293164
 H        -3.572221         2.597885         1.269159
 H        -0.880330         3.182992         0.733096
 H        -1.143629         2.348603         2.216260
