19
Iteration:  4842charge 0 multiplicity 1
 O         0.552395         0.632522         0.587546
 C        -0.754192         0.923585         0.519170
 C        -1.797238        -0.079364         1.024729
 C        -2.747431         0.835608        -0.010647
 C        -1.596445         1.067968        -0.939070
 O        -1.659171         2.284503        -1.515157
 C        -2.558895         3.107642        -0.778793
 C        -2.680412         2.345412         0.534219
 C        -1.217853         2.283834         1.220077
 H         1.213585         1.254067         0.217141
 H        -1.835758        -1.044838         0.541195
 H        -2.190029        -0.010609         2.034868
 H        -3.755063         0.373173        -0.215804
 H        -1.227827         0.227174        -1.559982
 H        -2.228907         4.187469        -0.805421
 H        -3.492875         3.223360        -1.339041
 H        -3.575180         2.704923         1.166611
 H        -0.514827         3.217789         0.954914
 H        -1.271582         2.191529         2.286722
