19
Iteration:  1483
 O         0.590299         0.578171         0.666624
 C        -0.716514         0.963789         0.496967
 C        -1.869835        -0.015630         0.919983
 C        -2.738292         0.859602        -0.027304
 C        -1.515432         1.069056        -0.875624
 O        -1.665562         2.269516        -1.571337
 C        -2.636000         3.071424        -0.746725
 C        -2.653515         2.333814         0.623012
 C        -1.261366         2.317146         1.125372
 H         1.145926         1.319111         0.961045
 H        -1.825638        -1.000000         0.467975
 H        -1.914244        -0.027932         1.965029
 H        -3.653253         0.353167        -0.501857
 H        -1.311746         0.330394        -1.632614
 H        -2.191006         4.122976        -0.723492
 H        -3.699143         2.819937        -1.122630
 H        -3.588028         2.583045         1.189681
 H        -0.642879         3.211759         0.765138
 H        -1.240046         2.347620         2.192957
