19
Iteration:  4169
 O         0.565336         0.570223         0.665015
 C        -0.724031         0.976191         0.451975
 C        -1.831171        -0.045122         1.016069
 C        -2.730203         0.800006         0.022748
 C        -1.543076         1.028603        -0.923961
 O        -1.649647         2.384651        -1.526169
 C        -2.666381         3.033353        -0.723312
 C        -2.679939         2.274181         0.526467
 C        -1.226896         2.379992         1.135420
 H         1.237839         1.107321         0.164025
 H        -1.661716        -1.047013         0.611384
 H        -2.100817        -0.038894         2.111132
 H        -3.686768         0.523660        -0.386204
 H        -1.206155         0.256681        -1.630967
 H        -2.205744         4.060124        -0.711843
 H        -3.670389         3.123619        -1.344705
 H        -3.390511         2.591851         1.214297
 H        -0.627159         3.250631         0.810430
 H        -1.337007         2.341882         2.154701
