19
Iteration:  1815
 O         0.613272         0.691082         0.496157
 C        -0.780453         1.026077         0.467038
 C        -1.797639         0.020456         0.967994
 C        -2.757647         0.855550         0.035543
 C        -1.590156         1.053602        -0.935444
 O        -1.576202         2.240492        -1.532296
 C        -2.632907         3.019132        -0.704868
 C        -2.684370         2.273061         0.582327
 C        -1.267859         2.318779         1.202683
 H         0.847121         0.235733         1.328849
 H        -1.669006        -0.969092         0.583809
 H        -2.091725         0.068110         2.058430
 H        -3.769556         0.678387        -0.306663
 H        -1.312600         0.203946        -1.629154
 H        -2.335280         4.103868        -0.600437
 H        -3.605522         2.939783        -1.303269
 H        -3.525674         2.439624         1.167711
 H        -0.655650         3.273008         0.905625
 H        -1.154432         2.142936         2.255781
