19
Iteration:  1699charge 0 multiplicity 1
 O         0.548363         0.745432         0.352240
 C        -0.752108         0.985427         0.541928
 C        -1.940976        -0.062913         0.981570
 C        -2.782553         0.821846         0.063943
 C        -1.501359         0.997955        -0.883187
 O        -1.524182         2.280827        -1.483373
 C        -2.558679         3.038148        -0.752208
 C        -2.664188         2.237527         0.579318
 C        -1.337030         2.380684         1.219579
 H         1.166477         1.031354         1.062207
 H        -1.758795        -1.130059         0.613516
 H        -2.216850         0.031389         2.014190
 H        -3.675774         0.392818        -0.327664
 H        -1.216057         0.099321        -1.425533
 H        -2.106887         4.012701        -0.535412
 H        -3.456570         3.197921        -1.531804
 H        -3.524873         2.651138         1.204030
 H        -0.725698         3.155443         0.989250
 H        -1.244526         2.173000         2.289114
