19
Iteration:  2267charge 0 multiplicity 1
 O         0.651375         0.674243         0.541367
 C        -0.767100         0.963324         0.536837
 C        -1.843338        -0.008969         0.954859
 C        -2.737977         0.780666         0.089529
 C        -1.560426         1.057885        -0.857492
 O        -1.607967         2.273133        -1.508742
 C        -2.633111         3.089334        -0.798820
 C        -2.751656         2.315511         0.595345
 C        -1.271966         2.266586         1.138835
 H         1.073904         1.374347         0.057996
 H        -1.552560        -0.980476         0.619609
 H        -2.188724        -0.059737         1.991151
 H        -3.714758         0.361701        -0.272734
 H        -1.286706         0.208473        -1.450457
 H        -2.111187         4.099385        -0.827729
 H        -3.511171         3.089618        -1.391161
 H        -3.650925         2.619623         1.218789
 H        -0.713584         3.175674         0.687583
 H        -1.067303         2.196122         2.213944
