19
Iteration:   570charge 0 multiplicity 1
 O         0.631765         0.693290         0.568713
 C        -0.708947         1.018959         0.530169
 C        -1.868491        -0.040711         0.968070
 C        -2.828215         0.858301         0.005372
 C        -1.500581         1.029588        -0.867853
 O        -1.671672         2.186784        -1.597734
 C        -2.532978         3.066202        -0.685700
 C        -2.694629         2.359880         0.553549
 C        -1.316146         2.257314         1.163835
 H         1.235294         1.419863         0.235883
 H        -1.825277        -1.024473         0.583578
 H        -2.147532         0.128760         2.045151
 H        -3.858659         0.489897        -0.312885
 H        -1.110027         0.136452        -1.444940
 H        -2.007576         4.026232        -0.536792
 H        -3.537703         3.154974        -1.278126
 H        -3.514222         2.585391         1.077628
 H        -0.692395         3.138434         1.040452
 H        -1.319744         2.082323         2.316095
