19
Iteration:  4726charge 0 multiplicity 1
 O         0.550435         0.592206         0.518720
 C        -0.773295         0.960624         0.526437
 C        -1.801067        -0.062528         0.972934
 C        -2.793489         0.832863         0.113063
 C        -1.472056         1.067991        -0.866971
 O        -1.583385         2.323365        -1.562000
 C        -2.533248         3.116040        -0.859406
 C        -2.746493         2.273397         0.606965
 C        -1.299474         2.272113         1.242947
 H         0.950415         1.343391        -0.017528
 H        -1.770748        -0.999051         0.475374
 H        -2.096161         0.036619         2.046978
 H        -3.864430         0.520731        -0.007540
 H        -1.240249         0.369089        -1.672747
 H        -2.202949         4.101955        -0.767520
 H        -3.463243         3.206813        -1.315008
 H        -3.567530         2.714186         1.049737
 H        -0.750373         3.119676         0.927491
 H        -1.250815         2.221898         2.416550
