19
Iteration:  4600
 O         0.552400         0.640063         0.616788
 C        -0.806366         0.960462         0.498855
 C        -1.863558        -0.003741         0.996822
 C        -2.797551         0.824792         0.044508
 C        -1.457130         1.023759        -0.920666
 O        -1.562963         2.317323        -1.506361
 C        -2.684539         3.139698        -0.795478
 C        -2.699781         2.314755         0.567958
 C        -1.176928         2.207233         1.176545
 H         0.965768         1.187384        -0.081984
 H        -1.658555        -1.071416         0.783045
 H        -2.046775         0.056509         2.066582
 H        -3.614541         0.322745        -0.438538
 H        -1.329002         0.333862        -1.703787
 H        -2.283758         4.190876        -0.763285
 H        -3.539719         2.982525        -1.332728
 H        -3.592367         2.610264         1.209658
 H        -0.701264         3.182789         0.764811
 H        -1.016023         2.099069         2.187233
