19
Iteration:  4398charge 0 multiplicity 1
 O         0.640855         0.675661         0.621524
 C        -0.744360         0.983095         0.489715
 C        -1.847888        -0.061491         0.919047
 C        -2.791036         0.842349         0.066099
 C        -1.635499         0.999307        -0.832361
 O        -1.613439         2.313231        -1.593635
 C        -2.550432         3.097626        -0.766326
 C        -2.715643         2.299073         0.574967
 C        -1.237675         2.264580         1.157106
 H         1.029143         1.561374         0.418645
 H        -1.636878        -1.060095         0.450408
 H        -2.148093        -0.056207         1.987486
 H        -3.746591         0.337826        -0.265325
 H        -1.452328         0.094559        -1.560726
 H        -1.999970         4.067316        -0.831070
 H        -3.542506         3.201146        -1.349346
 H        -3.502862         2.588156         1.261808
 H        -0.631814         3.185767         1.086980
 H        -1.350118         1.980114         2.329174
