19
Iteration:  3558
 O         0.670920         0.531861         0.644603
 C        -0.723420         1.059603         0.426010
 C        -1.881537        -0.015520         0.912550
 C        -2.741197         0.773979         0.021204
 C        -1.550193         1.072545        -0.904589
 O        -1.655800         2.310279        -1.537936
 C        -2.651030         3.046582        -0.668687
 C        -2.742726         2.293608         0.595111
 C        -1.223227         2.347058         1.107630
 H         1.344331         1.219388         0.553384
 H        -1.764137        -1.116937         0.890446
 H        -2.049730         0.108210         1.952532
 H        -3.708240         0.536078        -0.544009
 H        -1.313929         0.331760        -1.600424
 H        -2.375108         4.072153        -0.667921
 H        -3.670230         3.005074        -1.247318
 H        -3.313156         2.628888         1.399703
 H        -0.780849         3.249053         0.788183
 H        -1.265468         2.368797         2.171238
