19
Iteration:  4125
 O         0.596377         0.636769         0.600675
 C        -0.761325         1.055122         0.460228
 C        -1.865596        -0.098170         0.920920
 C        -2.752583         0.840369         0.088952
 C        -1.545780         1.015937        -0.902758
 O        -1.644844         2.256452        -1.499358
 C        -2.561755         3.055670        -0.790896
 C        -2.622410         2.322241         0.547472
 C        -1.301385         2.330701         1.200116
 H         1.028054         1.464278         0.218473
 H        -1.713382        -1.095620         0.556120
 H        -2.013203        -0.017929         2.031085
 H        -3.761955         0.569464        -0.198806
 H        -1.483209         0.209906        -1.606113
 H        -2.344349         4.114314        -0.491695
 H        -3.557284         3.016211        -1.351036
 H        -3.410801         2.740600         1.053271
 H        -0.634743         3.200964         0.990370
 H        -1.217631         2.056571         2.164335
