19
Iteration:  4712charge 0 multiplicity 1
 O         0.568847         0.634139         0.551498
 C        -0.791457         0.990187         0.559792
 C        -1.815645        -0.077321         0.952621
 C        -2.735718         0.821534         0.058105
 C        -1.648786         1.009787        -0.915037
 O        -1.569205         2.280775        -1.603470
 C        -2.529128         3.129725        -0.721624
 C        -2.711915         2.364355         0.570713
 C        -1.303515         2.310595         1.221576
 H         1.087524         1.270672         0.074876
 H        -1.529171        -1.085199         0.580844
 H        -2.063963        -0.337657         2.015889
 H        -3.680375         0.316931        -0.434139
 H        -1.314386         0.079981        -1.479093
 H        -2.014925         4.150072        -0.588047
 H        -3.401864         3.218489        -1.388975
 H        -3.537778         2.570333         1.321615
 H        -0.646994         3.219032         1.027779
 H        -1.276802         2.190150         2.260074
