19
Iteration:  2927
 O         0.648083         0.685712         0.484552
 C        -0.788938         0.960678         0.454240
 C        -1.867118        -0.032820         0.950484
 C        -2.714312         0.818977         0.058327
 C        -1.569074         1.031731        -0.918387
 O        -1.636657         2.332491        -1.456132
 C        -2.608314         3.009711        -0.754482
 C        -2.724810         2.305660         0.572615
 C        -1.218026         2.269167         1.197427
 H         1.044343         1.294783         1.146596
 H        -1.785097        -1.023512         0.452899
 H        -2.052560        -0.037255         2.028547
 H        -3.715036         0.414348        -0.208950
 H        -1.322152         0.343763        -1.673988
 H        -2.245291         4.037981        -0.670119
 H        -3.483655         3.187947        -1.431096
 H        -3.512823         2.689703         1.246659
 H        -0.659045         3.129777         0.959504
 H        -1.377510         2.129225         2.241823
