19
Iteration:  3101charge 0 multiplicity 1
 O         0.604937         0.586411         0.612805
 C        -0.728025         0.973469         0.467639
 C        -1.875884        -0.008798         0.864334
 C        -2.702894         0.833681         0.042144
 C        -1.513246         1.056318        -0.917920
 O        -1.699556         2.273245        -1.573097
 C        -2.663803         3.013351        -0.622787
 C        -2.633315         2.343579         0.599812
 C        -1.273431         2.347738         1.100425
 H         1.204714         1.390502         0.778240
 H        -1.547159        -1.066580         0.450014
 H        -1.988406        -0.145591         1.964019
 H        -3.709895         0.490741        -0.276647
 H        -1.362247         0.385860        -1.683862
 H        -2.244463         4.045560        -0.312118
 H        -3.577287         2.964460        -1.164063
 H        -3.340516         2.549165         1.336662
 H        -0.751293         3.433204         0.943445
 H        -1.300504         2.297786         2.193668
