19
Iteration:  1175
 O         0.564710         0.740016         0.706630
 C        -0.768136         0.929183         0.497293
 C        -1.875796        -0.016075         0.885841
 C        -2.805453         0.764271         0.024299
 C        -1.550275         1.025612        -0.826144
 O        -1.592404         2.382647        -1.544313
 C        -2.607936         3.055054        -0.778971
 C        -2.701818         2.287483         0.531203
 C        -1.139506         2.284598         1.133888
 H         0.915094         0.066254         0.087661
 H        -1.725304        -1.163538         0.631145
 H        -2.095424        -0.003909         1.931405
 H        -3.786707         0.554594        -0.379158
 H        -1.190642         0.423752        -1.690193
 H        -2.541925         4.147823        -0.638703
 H        -3.535183         2.893729        -1.240319
 H        -3.389263         2.638182         1.387158
 H        -0.483646         3.085335         0.746188
 H        -1.151428         2.259377         2.237295
