19
Iteration:  3705charge 0 multiplicity 1
 O         0.532641         0.589988         0.649059
 C        -0.760079         0.944992         0.555478
 C        -1.809543        -0.028181         0.950869
 C        -2.657743         0.820173         0.109765
 C        -1.559719         1.025331        -0.933908
 O        -1.669555         2.368403        -1.562003
 C        -2.700489         3.086882        -0.812230
 C        -2.622497         2.260604         0.520626
 C        -1.193892         2.319237         1.171962
 H         1.009956         1.342915         0.282352
 H        -1.532127        -1.068245         0.679849
 H        -1.981510         0.065430         2.084822
 H        -3.566276         0.724364        -0.363142
 H        -1.496128         0.259392        -1.788649
 H        -2.367578         4.153015        -0.486610
 H        -3.680813         2.886639        -1.376254
 H        -3.545363         2.506892         1.143360
 H        -0.565008         3.170737         0.761803
 H        -1.253233         2.289388         2.195719
