19
Iteration:  3240
 O         0.566817         0.626372         0.612428
 C        -0.759677         1.006470         0.487283
 C        -1.749373        -0.137661         0.893534
 C        -2.726551         0.845390         0.049196
 C        -1.562705         1.117976        -0.852918
 O        -1.738982         2.296467        -1.574980
 C        -2.671657         3.101174        -0.833295
 C        -2.683092         2.340563         0.621548
 C        -1.154434         2.225879         1.241799
 H         1.097195         1.408025         0.384315
 H        -1.581462        -1.201933         0.645011
 H        -2.137086         0.052967         1.922677
 H        -3.595101         0.350238        -0.460820
 H        -1.228950         0.312309        -1.581292
 H        -2.138094         4.065591        -0.656693
 H        -3.691279         3.113876        -1.355804
 H        -3.469354         2.635668         1.319977
 H        -0.651481         3.119869         0.864776
 H        -0.980890         2.195131         2.307266
