19
Iteration:  1274
 O         0.654769         0.738157         0.691587
 C        -0.771644         0.864947         0.532034
 C        -1.918926        -0.118956         0.943061
 C        -2.754711         0.864093         0.017006
 C        -1.517998         1.022816        -0.860653
 O        -1.616607         2.370084        -1.577402
 C        -2.644766         3.124459        -0.815212
 C        -2.657253         2.282486         0.564846
 C        -1.235326         2.322524         1.152093
 H         1.069169         0.144666        -0.003888
 H        -1.822902        -1.220393         0.574262
 H        -2.182540        -0.062419         2.028727
 H        -3.691921         0.420714        -0.247009
 H        -1.396642         0.181889        -1.567624
 H        -2.362808         4.210161        -0.745477
 H        -3.673078         3.043134        -1.145245
 H        -3.583628         2.643112         1.133836
 H        -0.591845         3.134042         0.820838
 H        -1.177477         2.251440         2.204388
