19
Iteration:  3782charge 0 multiplicity 1
 O         0.615583         0.684407         0.578593
 C        -0.787577         0.962766         0.502519
 C        -1.804291        -0.049403         0.983382
 C        -2.748245         0.895847        -0.010872
 C        -1.575241         0.991300        -0.920838
 O        -1.628738         2.271434        -1.519648
 C        -2.599364         3.038310        -0.795288
 C        -2.697658         2.319287         0.591670
 C        -1.245733         2.261458         1.251365
 H         1.102493         1.486434         0.216267
 H        -1.842006        -0.943664         0.354994
 H        -1.920410        -0.143361         2.077435
 H        -3.647712         0.572358        -0.477422
 H        -1.560461         0.010559        -1.435799
 H        -2.109411         4.067584        -0.801784
 H        -3.627878         3.299269        -1.300977
 H        -3.541344         2.790808         1.159497
 H        -0.709008         3.243767         1.087753
 H        -1.249967         2.100110         2.230315
