19
Iteration:  4093
 O         0.628393         0.660082         0.555787
 C        -0.798895         0.968771         0.470077
 C        -1.873973        -0.100124         0.999289
 C        -2.766651         0.838413         0.081087
 C        -1.506195         1.013399        -0.849635
 O        -1.639930         2.278895        -1.575596
 C        -2.602928         3.122406        -0.750328
 C        -2.678442         2.281727         0.516441
 C        -1.288066         2.315014         1.174569
 H         1.075848         1.527394         0.479155
 H        -1.733378        -1.104352         0.645970
 H        -2.073918        -0.131172         2.104795
 H        -3.745447         0.646970        -0.331141
 H        -1.362773         0.149597        -1.489689
 H        -2.171929         4.094882        -0.509303
 H        -3.370617         3.203875        -1.356620
 H        -3.335999         2.792829         1.149452
 H        -0.560735         3.212102         1.018202
 H        -1.172732         2.120631         2.178100
