19
Iteration:  1705charge 0 multiplicity 1
 O         0.614394         0.730737         0.344769
 C        -0.756355         1.002863         0.509330
 C        -1.966488        -0.050648         0.959404
 C        -2.823780         0.815792         0.072891
 C        -1.462336         1.005033        -0.805507
 O        -1.524894         2.284868        -1.494502
 C        -2.569534         3.018821        -0.783566
 C        -2.752395         2.244792         0.580365
 C        -1.274923         2.346574         1.201462
 H         1.175720         1.054650         1.108578
 H        -1.991151        -1.040242         0.619599
 H        -2.192561        -0.016793         2.074797
 H        -3.811630         0.459984        -0.370326
 H        -1.139398         0.142482        -1.438928
 H        -2.153143         3.991137        -0.469094
 H        -3.358788         3.179873        -1.424845
 H        -3.441545         2.530233         1.327465
 H        -0.682269         3.444288         1.106259
 H        -1.380395         2.222608         2.311001
