19
Iteration:  3271charge 0 multiplicity 1
 O         0.681245         0.512076         0.614943
 C        -0.726100         1.049515         0.431159
 C        -1.835163        -0.055403         0.931267
 C        -2.741687         0.809089         0.089938
 C        -1.566558         1.069104        -0.989373
 O        -1.633633         2.343677        -1.569965
 C        -2.710203         3.061857        -0.720896
 C        -2.695489         2.250522         0.641153
 C        -1.264646         2.394884         1.181187
 H         1.357958         1.211601         0.461313
 H        -1.678562        -1.016719         0.602104
 H        -2.151549         0.057138         1.973522
 H        -3.772911         0.445341        -0.127639
 H        -1.149274         0.229763        -1.681160
 H        -2.383066         4.020159        -0.576723
 H        -3.654380         3.113594        -1.305960
 H        -3.586774         2.470333         1.303693
 H        -0.995514         3.356908         0.792073
 H        -1.082217         2.277890         2.337627
