19
Iteration:  4480
 O         0.581157         0.574586         0.664287
 C        -0.756905         1.001121         0.510167
 C        -1.845142        -0.073170         0.936147
 C        -2.797729         0.818654         0.051987
 C        -1.612617         1.080472        -0.929362
 O        -1.551109         2.342663        -1.535845
 C        -2.721936         3.055568        -0.786121
 C        -2.678450         2.271468         0.537690
 C        -1.149797         2.321525         1.160328
 H         1.185926         1.341255         0.457774
 H        -1.523002        -1.049924         0.621483
 H        -2.024855        -0.195592         2.008752
 H        -3.741773         0.499048        -0.308796
 H        -1.299751         0.287538        -1.519949
 H        -2.305866         4.117813        -0.700957
 H        -3.683151         3.008457        -1.319999
 H        -3.339441         2.713332         1.337215
 H        -0.717556         3.293426         0.688278
 H        -1.097199         2.412941         2.186385
