19
Iteration:  2528
 O         0.622045         0.592878         0.697378
 C        -0.738871         1.033252         0.464970
 C        -1.877239        -0.038961         0.963491
 C        -2.767446         0.852527         0.109777
 C        -1.503842         1.061647        -0.886724
 O        -1.643787         2.350563        -1.536046
 C        -2.764335         3.052586        -0.760386
 C        -2.660067         2.242011         0.498501
 C        -1.162079         2.314894         1.053561
 H         1.383008         1.198213         0.425250
 H        -1.646970        -1.197672         0.688317
 H        -2.064190        -0.153354         2.103067
 H        -3.787090         0.492766        -0.265034
 H        -1.377272         0.319321        -1.667953
 H        -2.362656         4.105396        -0.869221
 H        -3.654356         2.861666        -1.249361
 H        -3.414015         2.396417         1.252219
 H        -0.697708         3.285303         0.756230
 H        -1.160254         2.200191         2.203173
