19
Iteration:  2228
 O         0.608104         0.574200         0.588147
 C        -0.749594         0.956605         0.475314
 C        -1.824315         0.046638         0.958870
 C        -2.748387         0.808335         0.051821
 C        -1.536078         1.071503        -0.832416
 O        -1.593548         2.375540        -1.511154
 C        -2.671016         2.986306        -0.843622
 C        -2.770873         2.300203         0.617915
 C        -1.182009         2.312374         1.100704
 H         1.011074         1.492347         0.506986
 H        -1.588876        -0.979298         0.664911
 H        -2.218350         0.084741         2.034929
 H        -3.631017         0.184223         0.033614
 H        -1.463896         0.323003        -1.660374
 H        -2.593760         4.043707        -0.785193
 H        -3.698415         2.869598        -1.403523
 H        -3.533958         2.436885         1.380299
 H        -0.561116         3.089656         0.756325
 H        -0.979354         2.292292         2.169870
