19
Iteration:   153charge 0 multiplicity 1
 O         0.598231         0.722176         0.485400
 C        -0.770495         0.923978         0.521903
 C        -1.880097        -0.025878         0.977789
 C        -2.721745         0.802855         0.092318
 C        -1.525894         1.046899        -0.876392
 O        -1.664042         2.283013        -1.633810
 C        -2.500282         3.126551        -0.797459
 C        -2.690267         2.298294         0.523855
 C        -1.329850         2.238212         1.293594
 H         0.966211         1.011690         1.333737
 H        -1.849938        -1.014362         0.526270
 H        -1.940967         0.016915         2.052928
 H        -3.634403         0.304122        -0.251591
 H        -1.280946         0.275355        -1.619664
 H        -1.934131         4.011795        -0.549445
 H        -3.589109         3.292987        -1.229812
 H        -3.505935         2.613737         1.145197
 H        -0.666713         3.076412         0.997084
 H        -1.304404         2.215011         2.404155
