19
Iteration:   569charge 0 multiplicity 1
 O         0.623590         0.680562         0.574740
 C        -0.706800         1.020123         0.538818
 C        -1.856760        -0.040774         0.962853
 C        -2.818584         0.857920         0.005394
 C        -1.501230         1.043022        -0.875425
 O        -1.675920         2.185733        -1.601940
 C        -2.541777         3.065434        -0.680070
 C        -2.693532         2.351780         0.546713
 C        -1.308995         2.267268         1.164076
 H         1.198188         1.422697         0.229719
 H        -1.856104        -1.026368         0.607753
 H        -2.156157         0.111179         2.042584
 H        -3.881561         0.486794        -0.316813
 H        -1.088191         0.124905        -1.432899
 H        -1.988283         4.034743        -0.517419
 H        -3.546336         3.163494        -1.282326
 H        -3.494494         2.568725         1.095395
 H        -0.691859         3.169593         0.998800
 H        -1.341690         2.119194         2.332900
