19
Iteration:  3991charge 0 multiplicity 1
 O         0.559249         0.627468         0.568381
 C        -0.789370         0.928229         0.586586
 C        -1.788623         0.003339         1.000634
 C        -2.803561         0.841887         0.017802
 C        -1.513421         1.032691        -0.920626
 O        -1.605169         2.296234        -1.556215
 C        -2.634240         3.083456        -0.722346
 C        -2.686945         2.374041         0.553536
 C        -1.242328         2.227228         1.137727
 H         0.972097         1.500981         0.422932
 H        -1.493696        -1.040303         0.669524
 H        -1.964310         0.078535         2.100453
 H        -3.796826         0.363798        -0.296384
 H        -1.141855         0.299527        -1.665892
 H        -2.207879         4.109857        -0.696397
 H        -3.518652         3.127417        -1.233558
 H        -3.704467         2.439105         1.016181
 H        -0.632806         3.158251         0.662252
 H        -1.092711         2.107157         2.261508
