19
Iteration:    13charge 0 multiplicity 1
 O         0.734002         0.600648         0.679187
 C        -0.699623         0.934960         0.418900
 C        -1.861717        -0.036565         0.894250
 C        -2.779385         0.871371         0.005908
 C        -1.585067         1.067350        -0.905431
 O        -1.611799         2.396573        -1.547478
 C        -2.637525         3.088538        -0.721660
 C        -2.713645         2.291352         0.568003
 C        -1.255150         2.233898         1.115363
 H         0.728654         0.713273         1.661364
 H        -1.920386        -1.013219         0.599337
 H        -2.220091         0.127461         1.969513
 H        -3.772770         0.461247        -0.266152
 H        -1.579495         0.191251        -1.607484
 H        -2.381693         4.149036        -0.746937
 H        -3.650992         2.829367        -1.191165
 H        -3.541111         2.648031         1.204868
 H        -0.773865         3.090200         0.819412
 H        -1.260732         2.256944         2.212762
