19
Iteration:  2959
 O         0.577097         0.607992         0.635883
 C        -0.760442         0.941647         0.487905
 C        -1.790970        -0.042479         0.919218
 C        -2.691949         0.813304         0.024945
 C        -1.558726         1.058248        -0.918697
 O        -1.643461         2.352568        -1.566917
 C        -2.684693         3.095132        -0.708024
 C        -2.758053         2.307164         0.615695
 C        -1.210985         2.293689         1.159104
 H         1.130470         1.243748         0.110338
 H        -1.639810        -1.096872         0.557318
 H        -1.961522        -0.120761         2.032173
 H        -3.654687         0.384835        -0.339837
 H        -1.276960         0.379011        -1.641115
 H        -2.110227         4.048767        -0.553173
 H        -3.642477         3.092676        -1.332153
 H        -3.505833         2.491386         1.376308
 H        -0.535831         3.128571         0.761048
 H        -1.091524         2.295880         2.239961
