19
Iteration:   715charge 0 multiplicity 1
 O         0.552836         0.646144         0.680872
 C        -0.763326         0.937714         0.496335
 C        -1.830381        -0.032918         1.001794
 C        -2.780330         0.850692         0.012515
 C        -1.535579         1.011904        -0.854373
 O        -1.641933         2.329434        -1.540705
 C        -2.662986         3.110071        -0.820112
 C        -2.660822         2.305029         0.528181
 C        -1.177654         2.220963         1.094006
 H         0.967728         1.497606         0.708418
 H        -1.677008        -1.033347         0.357829
 H        -1.816653        -0.333991         2.060965
 H        -3.698095         0.533375        -0.393191
 H        -1.271006         0.399620        -1.681592
 H        -2.342554         4.121955        -0.614434
 H        -3.767683         3.224302        -1.184250
 H        -3.352290         2.660814         1.320797
 H        -0.525320         3.083191         0.767328
 H        -0.977795         2.209006         2.190182
