19
Iteration:  1647charge 0 multiplicity 1
 O         0.678921         0.671633         0.624560
 C        -0.683229         0.939918         0.528037
 C        -1.855020        -0.035989         0.944778
 C        -2.778192         0.884946        -0.048132
 C        -1.568939         1.033368        -0.927098
 O        -1.739920         2.298799        -1.593929
 C        -2.584703         3.049535        -0.740736
 C        -2.672988         2.330111         0.595521
 C        -1.247937         2.334810         1.189322
 H         0.920702         0.619948         1.558730
 H        -1.807740        -1.074872         0.391872
 H        -2.140160        -0.323057         1.957424
 H        -3.810859         0.429008        -0.487180
 H        -1.260699         0.156680        -1.546595
 H        -2.241597         4.125916        -0.780285
 H        -3.470608         2.918800        -1.216176
 H        -3.582677         2.532749         1.305333
 H        -0.514802         3.187461         0.790718
 H        -1.237410         2.283862         2.303775
