19
Iteration:  2178charge 0 multiplicity 1
 O         0.582479         0.666589         0.705171
 C        -0.746622         1.070743         0.493726
 C        -1.806825        -0.006824         0.992455
 C        -2.748228         0.856458         0.073631
 C        -1.581126         1.059010        -0.969364
 O        -1.780806         2.221706        -1.693933
 C        -2.620353         3.103369        -0.751081
 C        -2.625413         2.223103         0.539501
 C        -1.197452         2.236422         1.233143
 H         1.155474         1.324872         0.315895
 H        -1.547066        -1.003686         0.507358
 H        -1.871006        -0.139550         2.040568
 H        -3.681350         0.448344        -0.328927
 H        -1.233550         0.257689        -1.637096
 H        -1.880132         3.930571        -0.475332
 H        -3.552962         3.406326        -1.118223
 H        -3.498474         2.586183         1.129904
 H        -0.584861         3.151551         0.954058
 H        -1.046467         2.131468         2.359305
