19
Iteration:  4857
 O         0.640101         0.630071         0.574944
 C        -0.778175         0.987765         0.480977
 C        -1.899143        -0.024498         0.926513
 C        -2.839955         0.823549         0.134402
 C        -1.555613         1.006628        -0.814910
 O        -1.559062         2.317387        -1.533136
 C        -2.536331         3.079603        -0.771263
 C        -2.717802         2.297394         0.580345
 C        -1.289446         2.272193         1.123291
 H         1.011567         1.375137         0.024771
 H        -1.572645        -0.976742         0.464299
 H        -1.954893        -0.032644         2.033471
 H        -3.726724         0.513051        -0.400858
 H        -1.401385         0.214918        -1.544398
 H        -2.083454         4.056462        -0.533797
 H        -3.501697         3.212390        -1.411510
 H        -3.458477         2.786047         1.123169
 H        -0.730092         3.074111         0.741764
 H        -1.296113         2.119333         2.201187
