19
Iteration:  3400charge 0 multiplicity 1
 O         0.560762         0.654166         0.610404
 C        -0.744534         0.992945         0.472972
 C        -1.782642        -0.133268         0.968646
 C        -2.757355         0.824600        -0.006964
 C        -1.563436         1.042142        -0.897146
 O        -1.692298         2.347807        -1.539309
 C        -2.618489         3.025340        -0.728583
 C        -2.646524         2.330977         0.612800
 C        -1.210417         2.317085         1.136717
 H         1.261636         1.345009         0.588213
 H        -1.661112        -1.090206         0.571665
 H        -2.096782        -0.334035         2.028450
 H        -3.746237         0.636780        -0.390984
 H        -1.394126         0.247383        -1.715959
 H        -2.309275         4.109482        -0.701506
 H        -3.668372         2.883090        -1.166629
 H        -3.520588         2.654768         1.282350
 H        -0.746276         3.133720         0.709416
 H        -0.950732         2.400880         2.230689
