19
Iteration:  2672
 O         0.525939         0.543652         0.698588
 C        -0.734889         0.992288         0.469102
 C        -1.752278        -0.013710         0.974802
 C        -2.724992         0.869483        -0.017722
 C        -1.516609         1.081729        -0.888403
 O        -1.664614         2.318291        -1.613352
 C        -2.698542         3.020181        -0.737083
 C        -2.685064         2.282635         0.606073
 C        -1.234867         2.331006         1.122644
 H         1.099217         1.148586         0.204739
 H        -1.532012        -1.122928         0.758724
 H        -1.795910         0.222737         2.140173
 H        -3.610745         0.524733        -0.494564
 H        -1.246399         0.254411        -1.474719
 H        -2.300845         4.114037        -0.681999
 H        -3.767488         2.940382        -1.084947
 H        -3.440698         2.625325         1.275459
 H        -0.664947         3.238124         0.731508
 H        -1.174583         2.312451         2.182762
