19
Iteration:   823charge 0 multiplicity 1
 O         0.553151         0.603661         0.791004
 C        -0.723260         0.953087         0.516170
 C        -1.865988        -0.050968         0.959649
 C        -2.668042         0.767284         0.003612
 C        -1.535437         1.069189        -0.927821
 O        -1.729597         2.327928        -1.519969
 C        -2.669749         3.120028        -0.756972
 C        -2.700511         2.314613         0.516728
 C        -1.156598         2.388650         1.060238
 H         0.972152         0.389875        -0.065772
 H        -1.602543        -1.046440         0.494388
 H        -2.044166        -0.066010         1.976333
 H        -3.519011         0.481398        -0.607137
 H        -1.114171         0.474501        -1.718779
 H        -2.429982         4.163342        -0.699195
 H        -3.646360         3.018614        -1.074196
 H        -3.368718         2.425393         1.287603
 H        -0.359094         3.089467         0.677191
 H        -1.052511         2.242809         2.217950
