19
Iteration:  1920charge 0 multiplicity 1
 O         0.609034         0.592378         0.748887
 C        -0.780816         1.011198         0.513839
 C        -1.798186        -0.083253         0.866375
 C        -2.794493         0.773963         0.059134
 C        -1.479414         1.085907        -0.925765
 O        -1.778193         2.325150        -1.575935
 C        -2.658880         3.100763        -0.728546
 C        -2.634971         2.291587         0.532725
 C        -1.176503         2.321820         1.147097
 H         1.177904         1.017192         0.054078
 H        -1.453009        -1.055174         0.507139
 H        -1.950934        -0.131103         1.991849
 H        -3.797690         0.435749        -0.374505
 H        -1.258743         0.288282        -1.623378
 H        -2.154922         4.046668        -0.721941
 H        -3.517826         3.186145        -1.282808
 H        -3.384712         2.628571         1.305090
 H        -0.705255         3.278463         0.738682
 H        -1.191056         2.415103         2.339835
