19
Iteration:  3978charge 0 multiplicity 1
 O         0.585658         0.651418         0.566004
 C        -0.770921         1.009941         0.446007
 C        -1.839226        -0.066868         1.002357
 C        -2.747058         0.768725         0.057718
 C        -1.604680         1.044858        -0.829094
 O        -1.601975         2.309019        -1.541522
 C        -2.560276         3.133537        -0.815816
 C        -2.726282         2.254863         0.540555
 C        -1.255580         2.291160         1.167494
 H         1.198435         1.399888         0.441290
 H        -1.761435        -1.132693         0.646464
 H        -2.031534        -0.105806         2.087033
 H        -3.702187         0.450728        -0.339214
 H        -1.380489         0.180668        -1.500889
 H        -2.151089         4.122896        -0.600699
 H        -3.457114         3.195174        -1.372020
 H        -3.335732         2.716181         1.377285
 H        -0.565698         3.118453         0.973352
 H        -1.321561         2.267009         2.334581
