19
Iteration:    24charge 0 multiplicity 1
 O         0.752506         0.569303         0.774441
 C        -0.699204         0.895199         0.424787
 C        -1.886158         0.001056         0.892213
 C        -2.778947         0.871401         0.038577
 C        -1.591238         1.086186        -0.999768
 O        -1.654963         2.407195        -1.538143
 C        -2.722626         3.062029        -0.755396
 C        -2.684530         2.312450         0.575266
 C        -1.207507         2.255864         1.079344
 H         0.803754         0.607067         1.769634
 H        -1.792809        -0.974618         0.595515
 H        -1.982647        -0.034496         2.031803
 H        -3.734300         0.538125        -0.423018
 H        -1.400404         0.363351        -1.837745
 H        -2.533002         4.133858        -0.634859
 H        -3.701793         3.039321        -1.324793
 H        -3.419097         2.581662         1.354040
 H        -0.651493         3.056773         0.740185
 H        -1.115282         2.074934         2.158201
