19
Iteration:   160
 O         0.606463         0.644266         0.558148
 C        -0.772910         1.019188         0.485569
 C        -1.824532         0.050272         0.990085
 C        -2.774605         0.815412         0.109914
 C        -1.516257         1.060875        -0.918146
 O        -1.680585         2.304299        -1.649298
 C        -2.542550         3.095043        -0.769995
 C        -2.659136         2.252626         0.508906
 C        -1.289777         2.210073         1.233839
 H         0.862142         0.871472         1.449736
 H        -1.846701        -1.076819         0.532109
 H        -1.963494        -0.015170         2.090235
 H        -3.560535         0.237929        -0.313344
 H        -1.351883         0.295853        -1.631007
 H        -2.125037         4.124889        -0.629418
 H        -3.516620         3.390256        -1.256331
 H        -3.362562         2.480211         1.342231
 H        -0.727752         3.209628         1.137888
 H        -1.479058         2.081069         2.315072
