19
Iteration:  2515
 O         0.655996         0.566003         0.635547
 C        -0.687284         0.966002         0.480221
 C        -1.828668        -0.013013         1.006566
 C        -2.773645         0.769446         0.026763
 C        -1.599775         1.046268        -0.838864
 O        -1.619458         2.389001        -1.520111
 C        -2.662885         3.054613        -0.851498
 C        -2.717283         2.279644         0.608809
 C        -1.257994         2.330586         1.079268
 H         1.105603         1.385905         0.487414
 H        -1.549167        -1.085298         0.584778
 H        -2.051858         0.100720         2.077755
 H        -3.738413         0.451577        -0.451037
 H        -1.409191         0.182520        -1.557912
 H        -2.592056         4.116529        -0.678266
 H        -3.578505         2.913677        -1.353603
 H        -3.473589         2.686687         1.325576
 H        -0.782950         3.171487         0.633006
 H        -0.997106         2.406739         2.226326
