19
Iteration:  2070charge 0 multiplicity 1
 C         2.589627         1.228494         0.019754
 C         1.677246         0.026009         0.052849
 C         0.568663        -0.410145        -0.969753
 C         0.334601        -1.249378         0.330405
 C         0.670823         0.165968         1.198997
 O         1.268972         0.075267         2.496268
 C         1.761878        -1.379627         2.699950
 O         2.634750        -1.684653         1.660254
 C         1.902931        -1.456573         0.382946
 H         3.236750         1.392480         0.936430
 H         3.238065         1.217550        -0.911201
 H         1.699875         1.994840        -0.012378
 H        -0.177233         0.376849        -1.155112
 H         0.991151        -0.888772        -1.934438
 H        -0.378032        -1.993579         0.653894
 H        -0.020305         1.029753         0.978394
 H         2.402640        -1.326733         3.672658
 H         0.821638        -1.975503         2.710280
 H         2.102806        -2.158439        -0.531255
