19
Iteration:  4178charge 0 multiplicity 1
 C         2.814973         0.972742        -0.178824
 C         1.713320         0.064454         0.083410
 C         0.644728        -0.406017        -0.914710
 C         0.356522        -1.256580         0.329162
 C         0.547781         0.139430         1.151185
 O         0.969916        -0.117465         2.542690
 C         1.690953        -1.280228         2.752171
 O         2.672433        -1.475428         1.689987
 C         1.970101        -1.270788         0.437757
 H         3.470806         0.930819         0.748493
 H         3.404158         0.647757        -1.070361
 H         2.346685         1.954477        -0.309913
 H        -0.014408         0.353429        -1.439755
 H         0.910303        -1.071060        -1.666603
 H        -0.454422        -1.896324         0.523397
 H        -0.028842         1.029409         1.128503
 H         2.253611        -1.034577         3.583425
 H         1.056775        -2.168038         2.741809
 H         2.349781        -1.795214        -0.385243
