19
Iteration:  2155
 C         2.788311         1.143298        -0.272393
 C         1.758389         0.097107         0.094205
 C         0.585865        -0.333937        -0.824322
 C         0.339901        -1.187459         0.379375
 C         0.621985         0.072781         1.259766
 O         0.952070        -0.203095         2.581956
 C         1.768561        -1.338832         2.665830
 O         2.700739        -1.504161         1.609311
 C         1.885686        -1.382571         0.435260
 H         3.428498         1.591598         0.557773
 H         3.329604         1.054523        -1.221161
 H         2.326797         2.053424        -0.741596
 H        -0.118059         0.413871        -1.224889
 H         0.910445        -0.973344        -1.626308
 H        -0.407796        -1.980799         0.386601
 H        -0.079631         0.940657         1.425802
 H         2.344277        -1.117162         3.621038
 H         1.005178        -2.239632         2.557656
 H         2.266130        -2.256595        -0.148155
