19
Iteration:  3075charge 0 multiplicity 1
 C         2.590728         1.316727        -0.156186
 C         1.765929         0.073473         0.030105
 C         0.708341        -0.378539        -0.861558
 C         0.304743        -1.210410         0.394205
 C         0.645768         0.126626         1.139058
 O         1.228720        -0.075584         2.433217
 C         1.716735        -1.330281         2.769792
 O         2.553861        -1.761340         1.702580
 C         1.896288        -1.419911         0.439482
 H         3.180464         1.463032         0.755471
 H         3.240267         1.398332        -1.047617
 H         1.862948         2.202302        -0.393153
 H        -0.052475         0.385287        -1.063588
 H         1.037923        -1.043450        -1.770720
 H        -0.477815        -1.943261         0.252124
 H         0.131797         1.098855         1.187056
 H         2.219384        -1.207503         3.721969
 H         0.832955        -1.999180         2.905232
 H         2.401964        -2.088189        -0.284202
