19
Iteration:  3295charge 0 multiplicity 1
 C         2.692858         1.111292        -0.135152
 C         1.662667         0.118307         0.114042
 C         0.601664        -0.311083        -0.887759
 C         0.343870        -1.303437         0.316525
 C         0.639144         0.004912         1.210567
 O         1.104240         0.012972         2.543241
 C         1.750560        -1.247477         2.721357
 O         2.600045        -1.674375         1.586976
 C         1.957066        -1.368583         0.417725
 H         3.336281         1.442961         0.706760
 H         3.584968         0.785284        -0.794269
 H         2.354764         2.136342        -0.441274
 H        -0.333286         0.297539        -1.150357
 H         0.976316        -0.897016        -1.760560
 H        -0.440257        -2.069984         0.526629
 H        -0.063124         0.806994         1.283363
 H         2.417092        -1.115826         3.582011
 H         0.995605        -1.993600         2.772918
 H         2.561926        -1.842124        -0.402746
