19
Iteration:  2185
 C         2.795235         1.140819        -0.206479
 C         1.629343         0.216916        -0.004292
 C         0.477972        -0.365857        -0.937639
 C         0.477042        -1.259095         0.413229
 C         0.624574         0.050722         1.223918
 O         1.103568        -0.096079         2.553992
 C         1.696343        -1.393171         2.714119
 O         2.623396        -1.588761         1.681218
 C         1.970349        -1.263243         0.394327
 H         3.480360         1.015336         0.672071
 H         3.347584         0.779205        -1.153954
 H         2.323379         2.133680        -0.285146
 H        -0.420266         0.342886        -1.216873
 H         0.898603        -0.991026        -1.715554
 H        -0.170110        -2.176207         0.635898
 H        -0.206851         0.754220         1.351962
 H         2.090669        -1.384657         3.735336
 H         0.891644        -2.125139         2.807509
 H         2.520865        -1.893301        -0.267351
