19
Iteration:  1272charge 0 multiplicity 1
 C         2.667588         1.302009        -0.265615
 C         1.682837         0.130984        -0.057910
 C         0.552513        -0.426623        -0.908049
 C         0.401743        -1.183471         0.363946
 C         0.651955         0.126952         1.204671
 O         1.109445        -0.090366         2.569409
 C         1.842038        -1.359443         2.818348
 O         2.561073        -1.694206         1.684451
 C         1.931713        -1.394497         0.462874
 H         2.990203         1.708955         0.749157
 H         3.622089         1.026126        -0.807762
 H         2.145955         2.079293        -0.791845
 H        -0.306406         0.192640        -1.315107
 H         0.876608        -1.023592        -1.760493
 H        -0.204164        -2.154299         0.400536
 H        -0.252154         0.698049         1.207493
 H         2.613018        -1.190551         3.647010
 H         1.105999        -2.166316         2.995614
 H         2.351379        -1.952264        -0.307939
