19
Iteration:  1141charge 0 multiplicity 1
 C         2.756529         1.161953        -0.280982
 C         1.612315         0.156025         0.028526
 C         0.474182        -0.343395        -0.876426
 C         0.498693        -1.370114         0.344794
 C         0.597737         0.073321         1.157731
 O         1.138928        -0.050068         2.584639
 C         1.793715        -1.284502         2.792065
 O         2.536776        -1.666936         1.672808
 C         1.980646        -1.283975         0.393541
 H         3.414952         1.070745         0.627698
 H         3.401010         1.017537        -1.173546
 H         2.354464         2.148345        -0.258781
 H        -0.526328         0.207635        -0.898648
 H         0.759986        -0.794114        -1.813278
 H        -0.166049        -2.217870         0.612031
 H        -0.239368         0.722583         1.216629
 H         2.519555        -1.133368         3.673405
 H         0.996350        -2.032175         3.032921
 H         2.543101        -1.811912        -0.355470
