19
Iteration:  3897
 C         2.634635         1.251699        -0.165981
 C         1.709481         0.095393         0.047996
 C         0.717273        -0.387568        -0.917628
 C         0.393942        -1.249254         0.332404
 C         0.651351         0.032028         1.151616
 O         1.164593        -0.014416         2.506488
 C         1.682182        -1.293258         2.771505
 O         2.547106        -1.648879         1.709716
 C         1.907590        -1.437786         0.430629
 H         3.277927         1.610655         0.669650
 H         3.307832         0.935539        -1.046010
 H         1.972322         1.958894        -0.631968
 H        -0.155299         0.301170        -0.982839
 H         1.159016        -0.764124        -1.811407
 H        -0.346562        -1.995585         0.531991
 H        -0.097501         0.836240         1.358082
 H         2.365538        -1.310917         3.595658
 H         0.783711        -1.940222         2.788936
 H         2.426205        -2.138305        -0.242320
