19
Iteration:  3110charge 0 multiplicity 1
 C         2.721475         1.271254        -0.114986
 C         1.680840         0.133942         0.026668
 C         0.625445        -0.412681        -0.853286
 C         0.366623        -1.307796         0.362784
 C         0.634588         0.083763         1.188069
 O         1.187974         0.034627         2.548617
 C         1.704791        -1.236093         2.759353
 O         2.509065        -1.763917         1.611458
 C         1.975181        -1.409815         0.357036
 H         3.220712         1.221576         0.847660
 H         3.517363         1.034367        -0.923114
 H         2.214427         2.257973        -0.055804
 H        -0.307956         0.234671        -1.167178
 H         0.883104        -0.923673        -1.810461
 H        -0.277274        -2.235169         0.350635
 H        -0.227354         0.891584         1.036263
 H         2.376500        -1.320582         3.624945
 H         0.921345        -1.977578         2.802174
 H         2.456206        -1.968724        -0.479254
