19
Iteration:  2409
 C         2.709102         1.351523        -0.011789
 C         1.699804         0.049727         0.077177
 C         0.577910        -0.432645        -0.878520
 C         0.459030        -1.260394         0.410338
 C         0.612333         0.075269         1.155364
 O         1.211081         0.050364         2.483040
 C         1.726313        -1.182628         2.703162
 O         2.518010        -1.809197         1.571128
 C         1.925002        -1.442261         0.365440
 H         3.356707         1.301071         0.851252
 H         2.994045         1.300393        -1.034062
 H         1.974637         2.186881         0.109711
 H        -0.239252         0.173680        -1.178796
 H         1.038946        -1.117099        -1.672720
 H        -0.224943        -2.051458         0.649097
 H        -0.340663         0.683935         1.082496
 H         2.371752        -1.250865         3.593629
 H         0.913591        -1.903558         2.828330
 H         2.416925        -2.068802        -0.460378
