19
Iteration:   394charge 0 multiplicity 1
 C         2.710386         1.261873        -0.454621
 C         1.726997         0.158507         0.096535
 C         0.564516        -0.352733        -0.838992
 C         0.440081        -1.239095         0.362663
 C         0.611854         0.052073         1.209593
 O         1.048811        -0.097786         2.549840
 C         1.786646        -1.275905         2.856485
 O         2.464304        -1.776494         1.661198
 C         2.034381        -1.348461         0.451045
 H         3.611571         1.257287         0.254413
 H         3.035306         0.786889        -1.354541
 H         2.404530         2.346848        -0.509824
 H        -0.290945         0.273358        -1.010787
 H         0.788288        -1.034568        -1.734104
 H        -0.252020        -1.967141         0.630795
 H        -0.011099         0.978257         1.272151
 H         2.657608        -0.994705         3.463992
 H         0.960069        -1.944943         3.224853
 H         2.816173        -1.778388        -0.308467
