19
Iteration:  2063charge 0 multiplicity 1
 C         2.593412         1.247792         0.008911
 C         1.691843         0.011527         0.038949
 C         0.562720        -0.395625        -0.970026
 C         0.329090        -1.229343         0.312457
 C         0.692800         0.126196         1.134745
 O         1.253260         0.073246         2.542667
 C         1.777533        -1.401989         2.703874
 O         2.618593        -1.651787         1.621486
 C         1.889435        -1.476863         0.452841
 H         3.110022         1.327173         0.935140
 H         3.027102         1.237499        -0.999693
 H         1.919453         2.120609        -0.157334
 H        -0.037051         0.544009        -1.206419
 H         0.927519        -0.874387        -1.936953
 H        -0.457144        -2.009304         0.636331
 H         0.001241         0.981720         1.187614
 H         2.414179        -1.315476         3.621666
 H         0.871676        -2.052379         2.833509
 H         2.276065        -2.267611        -0.229778
