19
Iteration:  1468charge 0 multiplicity 1
 C         2.637069         1.219416        -0.224472
 C         1.682752         0.061891        -0.031470
 C         0.553272        -0.353931        -0.922725
 C         0.304208        -1.204103         0.335380
 C         0.659510         0.122843         1.237057
 O         1.080031        -0.101843         2.611952
 C         1.756825        -1.339608         2.702381
 O         2.733101        -1.525969         1.646156
 C         1.980696        -1.491562         0.494928
 H         3.166018         1.377592         0.756534
 H         3.443250         0.701721        -0.749598
 H         2.229788         2.062940        -0.688246
 H        -0.242534         0.368565        -1.185210
 H         0.829397        -0.938536        -1.748723
 H        -0.563219        -1.938654         0.545469
 H         0.001178         1.009046         1.244744
 H         2.282703        -1.488558         3.680653
 H         0.914978        -2.142436         2.677388
 H         2.476766        -2.125562        -0.259853
