19
Iteration:  4243charge 0 multiplicity 1
 C         2.681214         1.328192        -0.185397
 C         1.718343         0.161543         0.048284
 C         0.703652        -0.429360        -0.918393
 C         0.426225        -1.254419         0.372880
 C         0.631557         0.087276         1.106305
 O         1.187376         0.030634         2.447028
 C         1.621888        -1.251090         2.761089
 O         2.488381        -1.827208         1.747753
 C         1.947452        -1.484119         0.501090
 H         3.145207         1.615599         0.794424
 H         3.496916         1.199324        -0.924181
 H         2.142701         2.150443        -0.674860
 H        -0.106869         0.243467        -1.338513
 H         1.028310        -1.046617        -1.749072
 H        -0.280067        -2.049997         0.609345
 H        -0.115792         0.848806         1.103690
 H         2.270374        -1.040031         3.572180
 H         0.775135        -1.983542         2.975531
 H         2.504112        -2.077411        -0.219550
