19
Iteration:  4873
 C         2.902690         1.069965        -0.172540
 C         1.738296         0.061782        -0.033009
 C         0.547475        -0.412137        -0.917989
 C         0.364617        -1.263891         0.361146
 C         0.552489         0.036053         1.262996
 O         0.965884         0.009040         2.580780
 C         1.758585        -1.323038         2.698296
 O         2.587674        -1.470351         1.693798
 C         1.982505        -1.359842         0.389435
 H         3.135867         1.358006         0.843216
 H         3.730421         0.584125        -0.701101
 H         2.544127         1.908468        -0.770208
 H        -0.214624         0.268778        -1.217231
 H         1.077355        -0.981264        -1.783055
 H        -0.401147        -1.976425         0.569952
 H        -0.221700         0.810294         1.085038
 H         2.310468        -1.142189         3.615908
 H         0.837161        -2.117687         2.749263
 H         2.615655        -2.013552        -0.347356
