19
Iteration:   870charge 0 multiplicity 1
 C         2.801276         1.154766        -0.190975
 C         1.594250         0.176549         0.075334
 C         0.533991        -0.349409        -0.828593
 C         0.346103        -1.338004         0.417957
 C         0.498140        -0.019796         1.189033
 O         1.201037         0.037683         2.481262
 C         1.721778        -1.225850         2.675886
 O         2.679343        -1.622919         1.666514
 C         1.973733        -1.430814         0.392777
 H         3.412346         1.441084         0.737505
 H         3.420739         0.609405        -0.899448
 H         2.448221         2.141344        -0.580301
 H        -0.211642         0.432153        -1.023043
 H         0.915176        -0.734119        -1.779814
 H        -0.419414        -2.040679         0.592645
 H        -0.500551         0.525629         1.259614
 H         2.239739        -1.430724         3.702649
 H         0.905907        -1.985032         2.699229
 H         2.512279        -2.182693        -0.356847
