19
Iteration:  1097
 C         2.529372         1.225615        -0.195052
 C         1.706136         0.043979         0.015112
 C         0.591506        -0.456979        -0.945391
 C         0.309209        -1.185137         0.373816
 C         0.656624         0.167710         1.209707
 O         1.227962         0.008053         2.557817
 C         1.730270        -1.397592         2.719695
 O         2.683524        -1.638104         1.638011
 C         1.952293        -1.433655         0.494646
 H         2.751948         1.489995         0.875482
 H         3.411434         0.880903        -0.802552
 H         2.056994         2.039558        -0.684591
 H         0.050641         0.552244        -1.101541
 H         0.909002        -0.972296        -1.841774
 H        -0.426738        -2.021565         0.603607
 H         0.021109         1.018004         1.162665
 H         2.217442        -1.424962         3.764010
 H         0.880323        -2.069220         2.709392
 H         2.283740        -1.963213        -0.393553
