19
Iteration:   167charge 0 multiplicity 1
 C         2.901878         1.142270         0.021418
 C         1.747563         0.100719         0.010658
 C         0.558105        -0.427507        -0.933419
 C         0.249057        -1.218288         0.319202
 C         0.538499        -0.019412         1.161615
 O         0.914668        -0.251938         2.541708
 C         2.217025        -0.783439         2.689918
 O         2.398019        -1.795171         1.635637
 C         1.855098        -1.408020         0.397290
 H         3.419228         1.103588         1.001968
 H         3.565147         1.159993        -0.794095
 H         2.377692         2.126495        -0.065659
 H        -0.094016         0.383682        -1.244231
 H         0.807932        -1.012523        -1.878684
 H        -0.575711        -2.005276         0.561871
 H        -0.346199         0.703648         1.202649
 H         2.938433         0.096776         2.571694
 H         2.218775        -1.352588         3.617351
 H         2.297421        -2.087376        -0.318620
