19
Iteration:  4015charge 0 multiplicity 1
 C         2.881467         1.093749        -0.204795
 C         1.682665         0.147767        -0.012800
 C         0.619538        -0.442270        -0.914781
 C         0.407639        -1.187649         0.374286
 C         0.473394         0.116797         1.198617
 O         0.870094        -0.051912         2.624332
 C         1.825562        -1.345196         2.731183
 O         2.658557        -1.569690         1.653813
 C         1.948635        -1.372411         0.432864
 H         3.402681         1.337469         0.762068
 H         3.637298         0.685381        -0.894626
 H         2.581572         2.042225        -0.607647
 H        -0.201493         0.355652        -1.227015
 H         0.973976        -0.933274        -1.766059
 H        -0.124228        -2.074789         0.498051
 H        -0.406348         0.732066         1.039622
 H         2.503258        -1.139675         3.519926
 H         1.107861        -2.180731         2.753117
 H         2.426805        -1.987220        -0.283109
