19
Iteration:  2104
 C         2.768346         1.249046        -0.100635
 C         1.667104         0.225977         0.090468
 C         0.483401        -0.430288        -0.921976
 C         0.458042        -1.322311         0.411324
 C         0.566015         0.067751         1.182122
 O         1.193032         0.006972         2.474080
 C         1.757999        -1.326844         2.747741
 O         2.537003        -1.759168         1.657742
 C         1.926912        -1.320826         0.318053
 H         3.452954         1.462040         0.748827
 H         3.514013         1.058557        -0.896632
 H         2.495361         2.339359        -0.361160
 H        -0.466743         0.127553        -0.998651
 H         0.767725        -0.817330        -1.970610
 H        -0.188487        -2.161713         0.688849
 H        -0.329499         0.761742         1.181173
 H         2.459737        -1.350878         3.669903
 H         0.999867        -2.093209         3.017404
 H         2.515079        -1.985634        -0.422154
