19
Iteration:  3765charge 0 multiplicity 1
 C         2.626581         1.276756        -0.153995
 C         1.633531         0.197568         0.072785
 C         0.648465        -0.417691        -0.966518
 C         0.443477        -1.335906         0.356573
 C         0.640228         0.056000         1.168104
 O         1.225401         0.105504         2.466386
 C         1.735755        -1.282339         2.751144
 O         2.500759        -1.832555         1.781091
 C         1.946880        -1.406999         0.398229
 H         3.477980         1.241020         0.599227
 H         3.152957         1.344529        -1.133420
 H         2.291437         2.253565         0.169103
 H        -0.278041         0.243752        -1.277018
 H         0.989935        -0.822879        -1.891485
 H        -0.255203        -2.172192         0.276546
 H        -0.267039         0.781716         1.072931
 H         2.480223        -1.262330         3.599557
 H         0.807695        -1.910030         3.036739
 H         2.320320        -2.099011        -0.430222
