19
Iteration:   232charge 0 multiplicity 1
 C         2.770634         1.179983        -0.243471
 C         1.696103         0.173440         0.078166
 C         0.600074        -0.372125        -0.968822
 C         0.435908        -1.240518         0.325940
 C         0.667632         0.086105         1.227401
 O         0.835645        -0.246782         2.599871
 C         2.157543        -0.960556         2.737414
 O         2.321789        -1.851807         1.726361
 C         1.895510        -1.404392         0.387830
 H         3.518574         1.171606         0.604846
 H         3.279407         1.155596        -1.173318
 H         2.297319         2.182226        -0.032717
 H        -0.180933         0.327865        -1.211166
 H         1.128018        -0.863155        -1.868513
 H        -0.299031        -2.118521         0.412411
 H        -0.118640         0.927746         1.226518
 H         2.931773        -0.244037         2.476371
 H         2.245289        -1.494892         3.684595
 H         2.410290        -2.011882        -0.371665
