19
Iteration:   720
 C         2.722689         1.175198        -0.211407
 C         1.718916         0.072926         0.153710
 C         0.556056        -0.422569        -0.933018
 C         0.284062        -1.240330         0.373523
 C         0.626786         0.048338         1.212487
 O         1.170739         0.022497         2.577845
 C         1.792733        -1.285097         2.697465
 O         2.643724        -1.598079         1.607712
 C         1.848744        -1.421995         0.442961
 H         3.202547         1.654606         0.675698
 H         3.469012         0.930134        -0.899954
 H         2.070656         1.923299        -0.702215
 H        -0.003815         0.431124        -1.306580
 H         1.014677        -0.905344        -1.867263
 H        -0.571813        -2.037524         0.620449
 H        -0.223011         0.755373         1.230503
 H         2.496102        -1.444110         3.547385
 H         1.064646        -2.085260         2.611663
 H         2.288310        -2.110982        -0.208441
