19
Iteration:  4374
 C         2.865432         1.093252        -0.233156
 C         1.787936         0.057527        -0.013346
 C         0.616673        -0.412768        -0.960406
 C         0.359444        -1.237536         0.383816
 C         0.610125         0.087419         1.185199
 O         0.859501        -0.087222         2.529627
 C         1.769155        -1.247091         2.791093
 O         2.577699        -1.536840         1.738233
 C         1.966963        -1.334478         0.441406
 H         3.463031         1.073062         0.706611
 H         3.578243         0.778800        -1.078026
 H         2.485722         2.139298        -0.419223
 H        -0.141856         0.407166        -1.277774
 H         0.900814        -1.049711        -1.773665
 H        -0.408337        -2.066610         0.483668
 H        -0.179838         0.799519         0.999081
 H         2.278619        -1.096956         3.760664
 H         1.116337        -2.096074         2.991558
 H         2.629838        -1.959191        -0.316552
