19
Iteration:  1377
 C         2.623291         1.191908        -0.095071
 C         1.708499         0.036319         0.023294
 C         0.579378        -0.370089        -0.901267
 C         0.331964        -1.243626         0.366913
 C         0.665360         0.045695         1.212595
 O         1.081843         0.010503         2.520676
 C         1.809472        -1.250707         2.720716
 O         2.684242        -1.598321         1.631675
 C         1.927779        -1.484117         0.394628
 H         3.490948         1.181161         0.530655
 H         2.908366         1.405836        -1.164837
 H         2.020901         2.078329         0.180028
 H        -0.222581         0.277355        -1.278693
 H         1.004527        -1.102398        -1.569903
 H        -0.553169        -1.787333         0.539726
 H         0.007076         0.938249         0.997659
 H         2.346060        -1.197150         3.692492
 H         1.150046        -2.194894         2.851634
 H         2.282011        -2.280622        -0.384654
