19
Iteration:   612charge 0 multiplicity 1
 C         2.732986         1.167811        -0.119612
 C         1.663461         0.137637        -0.002573
 C         0.519457        -0.480986        -0.908674
 C         0.360229        -1.272398         0.501176
 C         0.591764         0.096526         1.138891
 O         1.144477         0.022731         2.553478
 C         1.785610        -1.248934         2.635798
 O         2.649459        -1.663045         1.649051
 C         1.949288        -1.353397         0.373417
 H         3.466804         0.877130         0.714179
 H         3.253501         1.111555        -1.049424
 H         2.386893         2.195959         0.183959
 H        -0.424420         0.025860        -1.065967
 H         0.736285        -1.190606        -1.817906
 H        -0.510657        -2.052452         0.727317
 H        -0.037899         1.012200         1.154091
 H         2.190684        -1.333659         3.657921
 H         0.906051        -1.871281         2.658250
 H         2.536635        -2.063253        -0.332869
