19
Iteration:  3402
 C         2.671007         1.261680        -0.178538
 C         1.669744         0.162419         0.056237
 C         0.584946        -0.357236        -0.920602
 C         0.501900        -1.321866         0.385418
 C         0.640809         0.094060         1.174873
 O         1.229604         0.052537         2.532372
 C         1.716079        -1.269993         2.726721
 O         2.432290        -1.829792         1.658632
 C         1.980691        -1.373035         0.402447
 H         3.364708         1.132010         0.612451
 H         3.009810         1.267241        -1.229287
 H         2.101146         2.229620        -0.102193
 H        -0.184139         0.336915        -1.138128
 H         1.134725        -0.920422        -1.706647
 H        -0.157682        -2.241305         0.668197
 H        -0.286390         0.667558         1.407450
 H         2.297815        -1.402515         3.658576
 H         0.878985        -1.976327         2.897999
 H         2.505897        -1.992289        -0.391152
