19
Iteration:  4281charge 0 multiplicity 1
 C         2.578452         1.234304        -0.136563
 C         1.765935         0.055622         0.036165
 C         0.746044        -0.430416        -0.972528
 C         0.386184        -1.182354         0.383889
 C         0.674203         0.066927         1.107438
 O         1.226643         0.031273         2.453812
 C         1.575448        -1.198324         2.799962
 O         2.455286        -1.749669         1.710339
 C         1.994792        -1.470288         0.466293
 H         3.088216         1.459307         0.790939
 H         3.297385         1.100452        -0.932014
 H         1.873495         2.090112        -0.169172
 H         0.009694         0.241564        -1.323425
 H         1.270246        -1.082119        -1.710184
 H        -0.250334        -2.083706         0.491562
 H        -0.081041         0.922194         1.072355
 H         2.345864        -1.197091         3.643465
 H         0.817177        -1.905404         3.172900
 H         2.501854        -1.942544        -0.386930
