19
Iteration:  1783charge 0 multiplicity 1
 C         2.749092         1.249431        -0.266084
 C         1.730192         0.087849         0.017611
 C         0.613680        -0.425312        -0.894889
 C         0.329342        -1.182588         0.369911
 C         0.661184         0.105956         1.271731
 O         1.001803        -0.170098         2.562648
 C         1.819019        -1.341317         2.730889
 O         2.635379        -1.600446         1.639715
 C         1.878548        -1.343745         0.422814
 H         3.494721         1.315349         0.588898
 H         3.314884         1.247311        -1.224361
 H         2.278564         2.197212        -0.301367
 H        -0.231054         0.281856        -1.234344
 H         0.791795        -1.107907        -1.751294
 H        -0.426531        -1.880523         0.623476
 H         0.008305         1.036004         1.397439
 H         2.287487        -1.147527         3.676263
 H         1.141582        -2.224610         2.929037
 H         2.208136        -2.177991        -0.271456
