19
Iteration:  2856
 C         2.792347         1.164863        -0.295974
 C         1.643149         0.185587         0.109064
 C         0.581756        -0.239879        -0.902550
 C         0.451699        -1.281450         0.332451
 C         0.648993        -0.004201         1.227089
 O         1.031515        -0.102937         2.619141
 C         1.690255        -1.275499         2.727595
 O         2.588902        -1.674479         1.674017
 C         2.007221        -1.330581         0.390378
 H         3.294381         1.467760         0.608444
 H         3.306737         0.562600        -0.962637
 H         2.314470         1.977164        -0.900596
 H        -0.259282         0.343710        -1.120140
 H         0.847446        -0.884567        -1.766510
 H        -0.130030        -2.156898         0.394561
 H        -0.249878         0.667185         1.386565
 H         2.252391        -1.174413         3.646417
 H         0.898832        -2.064204         2.862061
 H         2.449484        -1.907126        -0.395313
