19
Iteration:    12
 C         2.717543         1.188024        -0.139223
 C         1.684572         0.137431         0.125490
 C         0.601198        -0.252933        -0.896003
 C         0.385891        -1.311334         0.360580
 C         0.640621        -0.001217         1.180552
 O         0.952176        -0.112339         2.493724
 C         2.049628        -0.957386         2.728251
 O         2.437639        -1.842645         1.685829
 C         1.890946        -1.496562         0.343017
 H         3.424807         1.262844         0.692820
 H         3.269328         0.738491        -0.958908
 H         2.379511         2.180273        -0.453556
 H        -0.161056         0.499945        -1.091571
 H         1.073505        -0.619812        -1.810243
 H        -0.361741        -2.119358         0.477600
 H        -0.223600         0.650029         1.109984
 H         2.942834        -0.280278         2.970996
 H         1.774711        -1.543623         3.592281
 H         2.419922        -2.157561        -0.338932
