19
Iteration:  2482charge 0 multiplicity 1
 C         2.902945         1.111018        -0.295271
 C         1.695566         0.160496         0.188161
 C         0.491702        -0.316263        -0.813197
 C         0.474621        -1.295666         0.374577
 C         0.575008         0.028323         1.252007
 O         0.938205        -0.083165         2.580468
 C         1.715195        -1.276061         2.701741
 O         2.626323        -1.634713         1.567394
 C         1.999330        -1.254572         0.341250
 H         3.347765         1.497414         0.681194
 H         3.535897         0.506300        -0.892406
 H         2.403059         1.842042        -0.893511
 H        -0.422377         0.297237        -0.852653
 H         0.847037        -0.751091        -1.788698
 H        -0.060816        -2.213669         0.569767
 H        -0.252217         0.704094         1.208242
 H         2.339472        -1.198523         3.548535
 H         1.023885        -2.152587         2.919385
 H         2.385883        -1.911461        -0.361706
