19
Iteration:  2580
 C         2.690766         1.327183        -0.083211
 C         1.639337         0.127172         0.062288
 C         0.591910        -0.381589        -0.909894
 C         0.347688        -1.350172         0.247905
 C         0.609472        -0.075603         1.194856
 O         1.302719         0.039462         2.417715
 C         1.725694        -1.230019         2.837165
 O         2.488946        -1.716671         1.677452
 C         1.942992        -1.380724         0.395528
 H         3.414764         0.746874         0.600941
 H         3.113367         1.199164        -1.040032
 H         2.332023         2.315667         0.240927
 H        -0.180365         0.304961        -1.180737
 H         1.128755        -0.651164        -1.807555
 H        -0.437479        -2.129927         0.326503
 H        -0.102287         0.702048         1.403552
 H         2.395115        -1.197151         3.703250
 H         0.864860        -1.946088         2.929729
 H         2.665781        -1.927998        -0.146790
