19
Iteration:  2049
 C         2.637197         1.269728        -0.127878
 C         1.736139         0.078996        -0.001101
 C         0.611726        -0.349047        -0.897836
 C         0.304940        -1.215409         0.379292
 C         0.667270         0.021879         1.191738
 O         1.199094        -0.069402         2.537616
 C         1.787255        -1.254033         2.741598
 O         2.565987        -1.648788         1.644088
 C         1.894551        -1.476620         0.390949
 H         3.287231         1.283315         0.796341
 H         3.455683         1.244702        -0.880473
 H         1.999735         2.252186        -0.058222
 H        -0.214514         0.366665        -1.130439
 H         0.832297        -1.044882        -1.814950
 H        -0.575262        -1.874672         0.406427
 H        -0.099109         0.846962         1.134729
 H         2.488287        -1.272265         3.677426
 H         0.991016        -2.067131         2.806134
 H         2.364160        -2.135649        -0.472036
