19
Iteration:  2805charge 0 multiplicity 1
 C         2.737260         1.099377        -0.106749
 C         1.692189         0.062749         0.070217
 C         0.622110        -0.371578        -0.839647
 C         0.352273        -1.263317         0.383070
 C         0.573555         0.170306         1.177460
 O         0.989473        -0.071067         2.507116
 C         1.766906        -1.302917         2.631475
 O         2.727858        -1.562296         1.612143
 C         1.952175        -1.396961         0.424002
 H         3.311184         0.882109         0.750157
 H         3.291599         0.880653        -1.111471
 H         2.219663         2.059349         0.035458
 H        -0.204949         0.423534        -0.956370
 H         0.995301        -0.791777        -1.757067
 H        -0.465026        -1.993145         0.622729
 H        -0.058803         1.071392         1.301884
 H         2.158186        -1.157354         3.600235
 H         1.065636        -2.151030         2.614654
 H         2.290830        -2.043485        -0.395565
