19
Iteration:  2973
 C         2.822686         1.129311        -0.106147
 C         1.705932         0.154999         0.072141
 C         0.560582        -0.416272        -0.949317
 C         0.390415        -1.224540         0.347148
 C         0.658948         0.040039         1.216662
 O         1.000043        -0.101434         2.588713
 C         1.756497        -1.300192         2.792530
 O         2.569147        -1.536855         1.598052
 C         1.905153        -1.367773         0.285800
 H         3.656924         1.247514         0.671444
 H         3.296316         0.886855        -1.043772
 H         2.450091         2.179208        -0.203916
 H        -0.346728         0.097282        -1.327720
 H         1.009752        -1.017583        -1.797573
 H        -0.350016        -2.067909         0.507101
 H        -0.017812         0.804298         1.251288
 H         2.436275        -0.877005         3.564612
 H         1.162549        -2.032144         3.219787
 H         2.421532        -2.175554        -0.242779
