19
Iteration:  1562charge 0 multiplicity 1
 C         2.677037         1.366484        -0.100669
 C         1.718800         0.068696         0.028570
 C         0.567219        -0.448323        -0.922140
 C         0.375716        -1.226158         0.477175
 C         0.629250         0.103804         1.177777
 O         1.130501         0.019966         2.488357
 C         1.757217        -1.293464         2.689355
 O         2.650707        -1.730031         1.620210
 C         1.907877        -1.499044         0.391410
 H         3.378833         1.324852         0.751935
 H         3.320722         1.479399        -1.046422
 H         2.022494         2.260466         0.041768
 H        -0.277728         0.258890        -1.154488
 H         0.762501        -1.241854        -1.737384
 H        -0.251050        -2.043536         0.677178
 H        -0.323943         0.702003         1.192184
 H         2.265187        -1.126893         3.669412
 H         0.986775        -2.022537         2.875492
 H         2.460790        -2.078820        -0.414937
