19
Iteration:   255
 C         2.731638         1.230640        -0.200359
 C         1.785636         0.095539        -0.008528
 C         0.586064        -0.359192        -0.912333
 C         0.307210        -1.138628         0.358659
 C         0.619218         0.019876         1.152740
 O         0.942254        -0.207420         2.534861
 C         2.024924        -0.997638         2.808486
 O         2.459857        -1.830390         1.697662
 C         1.946794        -1.438729         0.429619
 H         3.517706         1.428423         0.568265
 H         3.158657         1.043322        -1.145866
 H         2.133905         2.180806        -0.201989
 H        -0.086412         0.472349        -1.157294
 H         0.921448        -1.027725        -1.776040
 H        -0.586676        -1.929926         0.467599
 H        -0.121748         0.880081         1.291268
 H         3.009910        -0.460741         2.971587
 H         1.729880        -1.753152         3.505799
 H         2.295948        -2.169034        -0.287377
