19
Iteration:  1309charge 0 multiplicity 1
 C         2.705464         1.143713        -0.251272
 C         1.733716         0.123511         0.081642
 C         0.555523        -0.382478        -0.839397
 C         0.382152        -1.249583         0.403929
 C         0.572848         0.083780         1.192528
 O         1.023800        -0.030615         2.590676
 C         1.824470        -1.327878         2.671523
 O         2.693866        -1.618974         1.632764
 C         1.954128        -1.389831         0.413325
 H         2.862327         1.700873         0.656754
 H         3.560740         1.062150        -0.856647
 H         2.010872         1.876102        -0.794274
 H        -0.235502         0.311390        -0.952560
 H         0.886581        -0.936719        -1.755172
 H        -0.418061        -1.868090         0.219392
 H        -0.201520         0.862379         1.167886
 H         2.412225        -1.293600         3.557874
 H         1.017207        -2.124102         2.901094
 H         2.324110        -2.195187        -0.288459
