19
Iteration:  1771charge 0 multiplicity 1
 C         2.697087         1.333263        -0.239337
 C         1.785591         0.092261         0.077742
 C         0.643140        -0.439825        -0.914686
 C         0.174902        -1.197504         0.397354
 C         0.584369         0.087759         1.183260
 O         1.107933        -0.104282         2.573658
 C         1.815565        -1.337913         2.723952
 O         2.656772        -1.626583         1.646292
 C         1.857057        -1.472901         0.483032
 H         3.511078         1.420089         0.563571
 H         3.262487         1.246211        -1.225810
 H         2.064803         2.161349        -0.124010
 H         0.024108         0.466220        -1.301400
 H         1.239937        -0.948416        -1.701907
 H        -0.578175        -1.975522         0.347197
 H         0.116020         1.113845         1.005464
 H         2.595848        -1.293135         3.496531
 H         1.045402        -2.151802         2.775461
 H         2.223575        -2.115042        -0.388997
