19
Iteration:  2683
 C         2.835810         1.164587        -0.266913
 C         1.697406         0.257747         0.067065
 C         0.571760        -0.378040        -0.845044
 C         0.428539        -1.264910         0.459941
 C         0.563048         0.064671         1.240280
 O         1.018855        -0.076941         2.539238
 C         1.706450        -1.409150         2.606546
 O         2.623500        -1.613039         1.669062
 C         2.001315        -1.305681         0.421161
 H         3.294233         1.446628         0.651408
 H         3.482502         0.414143        -0.820306
 H         2.415520         2.040453        -0.814995
 H        -0.357048         0.238990        -0.846183
 H         0.820012        -0.840156        -1.839942
 H        -0.273725        -2.064640         0.617145
 H        -0.295103         0.831913         1.209140
 H         2.196400        -1.426288         3.588785
 H         0.834011        -2.147922         2.561769
 H         2.391668        -1.981944        -0.338793
