19
Iteration:  1854charge 0 multiplicity 1
 C         2.671113         1.155121        -0.134000
 C         1.639603         0.112021        -0.013842
 C         0.586029        -0.416678        -0.915386
 C         0.372375        -1.197425         0.444570
 C         0.724688         0.127448         1.223577
 O         1.041262        -0.116727         2.551822
 C         1.788283        -1.306870         2.692160
 O         2.645036        -1.619845         1.626815
 C         1.926064        -1.352253         0.394910
 H         3.174205         1.311542         0.771646
 H         3.454393         0.986726        -0.835446
 H         2.379862         2.199402        -0.475720
 H        -0.155919         0.264870        -1.199455
 H         0.904254        -0.973570        -1.810729
 H        -0.376824        -2.041998         0.478049
 H        -0.075808         0.844978         1.250945
 H         2.349157        -1.197669         3.682550
 H         0.987074        -2.127173         2.888968
 H         2.316562        -1.922677        -0.418605
