19
Iteration:  2257charge 0 multiplicity 1
 C         2.746552         1.426517        -0.070208
 C         1.701759         0.131728         0.060224
 C         0.565983        -0.480735        -0.990427
 C         0.330553        -1.194490         0.364414
 C         0.613156         0.046739         1.135092
 O         1.136513        -0.085091         2.498060
 C         1.853753        -1.237966         2.789433
 O         2.552625        -1.781753         1.634459
 C         1.869801        -1.431633         0.390348
 H         3.279058         1.562603         0.842888
 H         3.526122         1.281728        -0.819652
 H         2.098470         2.316115        -0.242509
 H        -0.126797         0.139626        -1.346358
 H         1.061195        -1.155520        -1.696659
 H        -0.304311        -1.992892         0.642684
 H        -0.147062         0.789827         1.291769
 H         2.473892        -1.019129         3.613976
 H         1.086504        -1.931031         3.212146
 H         2.281764        -2.232957        -0.277806
