19
Iteration:  1730
 C         2.716875         1.312551        -0.084065
 C         1.661902         0.190295        -0.006698
 C         0.464975        -0.417202        -0.835280
 C         0.436179        -1.430812         0.333859
 C         0.651600         0.080910         1.127110
 O         1.282774         0.085044         2.481909
 C         1.714488        -1.298457         2.777430
 O         2.443882        -1.787631         1.640046
 C         2.033256        -1.377335         0.393194
 H         3.413009         1.453081         0.781088
 H         3.390763         1.219948        -0.929056
 H         2.381723         2.362567        -0.105125
 H        -0.484820         0.228108        -0.842123
 H         0.706498        -0.907420        -1.805233
 H        -0.192817        -2.260236         0.637096
 H        -0.362132         0.571080         1.191892
 H         2.335574        -1.211793         3.639547
 H         0.788127        -2.013234         2.876336
 H         2.684545        -1.905313        -0.374097
