19
Iteration:  3738charge 0 multiplicity 1
 C         2.609877         1.281663        -0.122871
 C         1.762263         0.091407         0.103822
 C         0.664129        -0.438728        -0.966999
 C         0.337595        -1.254370         0.440218
 C         0.678622         0.085550         1.132270
 O         1.219733         0.023964         2.468669
 C         1.644804        -1.319950         2.754266
 O         2.589242        -1.720682         1.707874
 C         1.958777        -1.423058         0.411085
 H         3.423187         1.571206         0.517022
 H         2.997790         1.186725        -1.130642
 H         1.837515         2.170762        -0.065736
 H        -0.084159         0.240817        -1.201091
 H         0.904830        -1.046057        -1.903800
 H        -0.550265        -1.932339         0.434465
 H        -0.002164         0.911328         1.055978
 H         2.251671        -1.187542         3.640423
 H         0.689373        -2.006157         2.758921
 H         2.162571        -2.019038        -0.452748
