19
Iteration:  4718charge 0 multiplicity 1
 C         2.747753         1.109253        -0.205417
 C         1.761564         0.100425         0.062130
 C         0.643120        -0.399220        -0.930701
 C         0.334904        -1.233042         0.342593
 C         0.608909         0.060505         1.086015
 O         0.980895        -0.076462         2.529169
 C         1.713517        -1.242571         2.766158
 O         2.653989        -1.539454         1.728607
 C         1.956690        -1.391778         0.509256
 H         3.472760         1.113823         0.646685
 H         3.318177         0.710719        -1.048669
 H         2.522645         2.163288        -0.270841
 H        -0.120776         0.286391        -1.106016
 H         0.884697        -0.952199        -1.876071
 H        -0.456967        -1.943011         0.341206
 H        -0.188773         0.807902         0.978083
 H         2.378739        -0.955048         3.526099
 H         1.064224        -2.162402         2.900328
 H         2.203608        -2.236650        -0.276571
