19
Iteration:  1140charge 0 multiplicity 1
 C         2.757965         1.169641        -0.282922
 C         1.609994         0.149898         0.036247
 C         0.480840        -0.350391        -0.870814
 C         0.499846        -1.364391         0.349283
 C         0.596672         0.073664         1.149123
 O         1.140280        -0.049289         2.582801
 C         1.792190        -1.288922         2.792150
 O         2.536633        -1.664744         1.665098
 C         1.974457        -1.285463         0.396220
 H         3.405054         1.082866         0.616226
 H         3.450210         1.036330        -1.169565
 H         2.346978         2.162964        -0.265603
 H        -0.514420         0.233890        -0.886095
 H         0.752567        -0.815109        -1.811901
 H        -0.175522        -2.245897         0.632501
 H        -0.241168         0.736017         1.215632
 H         2.531937        -1.131794         3.663798
 H         0.973172        -2.052010         3.024340
 H         2.531722        -1.814123        -0.324438
