19
Iteration:  1484
 C         2.711275         1.166862        -0.192315
 C         1.734461         0.051769         0.081466
 C         0.556951        -0.435447        -0.891690
 C         0.334804        -1.172312         0.476454
 C         0.670132         0.109097         1.172560
 O         0.992184        -0.090732         2.572848
 C         1.819735        -1.367830         2.692606
 O         2.692659        -1.586260         1.632947
 C         1.909450        -1.337652         0.331297
 H         2.973322         1.746807         0.672635
 H         3.664047         1.126772        -0.743643
 H         1.989921         1.899215        -0.746780
 H        -0.145168         0.380681        -1.128201
 H         0.896736        -1.025230        -1.845041
 H        -0.418430        -1.939664         0.730480
 H        -0.039624         0.948551         1.168541
 H         2.349868        -1.160436         3.604492
 H         1.120832        -2.171493         2.776836
 H         2.247124        -2.132968        -0.330692
