19
Iteration:  3007
 C         2.824978         1.082299        -0.201034
 C         1.692887         0.093923         0.033603
 C         0.573567        -0.288246        -0.876217
 C         0.384302        -1.217714         0.357502
 C         0.511609         0.075539         1.261909
 O         0.993903        -0.114797         2.504385
 C         1.707555        -1.377716         2.703569
 O         2.768871        -1.512156         1.721980
 C         1.935096        -1.334293         0.389404
 H         3.500475         1.139000         0.719322
 H         3.318710         0.748367        -1.074087
 H         2.245527         1.944357        -0.626037
 H        -0.257752         0.365635        -1.024435
 H         0.872203        -0.924117        -1.804653
 H        -0.340022        -2.017443         0.462170
 H        -0.082286         0.890570         1.155106
 H         2.238072        -1.187999         3.662119
 H         1.008245        -2.202725         2.757925
 H         2.171229        -2.107727        -0.375757
