19
Iteration:  3828
 C         2.796720         1.057412        -0.183450
 C         1.707578         0.053936         0.096213
 C         0.603274        -0.387884        -0.944921
 C         0.276171        -1.207345         0.337428
 C         0.565705         0.053787         1.205005
 O         1.018113        -0.071916         2.625196
 C         1.744288        -1.310221         2.688189
 O         2.724666        -1.490448         1.638386
 C         1.977699        -1.331115         0.412845
 H         3.244430         1.151912         0.833926
 H         3.478383         0.520533        -0.860345
 H         2.235003         1.956531        -0.593480
 H        -0.139323         0.406128        -1.251775
 H         0.971791        -1.019490        -1.737413
 H        -0.687392        -1.773491         0.358574
 H        -0.255998         0.863201         1.142212
 H         2.256684        -1.037726         3.620622
 H         0.979065        -2.088880         2.626790
 H         2.415328        -2.102211        -0.193896
