19
Iteration:  4114charge 0 multiplicity 1
 C         2.622365         1.243342        -0.172098
 C         1.686852         0.096079         0.067994
 C         0.704111        -0.358788        -0.945158
 C         0.426967        -1.325354         0.321626
 C         0.598280         0.086611         1.100920
 O         1.162644         0.064568         2.470755
 C         1.649961        -1.231895         2.862131
 O         2.589003        -1.747586         1.733761
 C         1.967788        -1.467173         0.423803
 H         3.355017         1.257266         0.657867
 H         3.292793         0.988323        -1.033563
 H         2.271280         2.241359        -0.082999
 H        -0.195911         0.313375        -1.407707
 H         1.178916        -0.931669        -1.687503
 H        -0.535627        -1.747003         0.435055
 H        -0.232590         0.783592         1.057246
 H         2.307505        -1.335856         3.749122
 H         0.730703        -1.939715         2.834837
 H         2.365198        -2.199433        -0.210452
