19
Iteration:  1876charge 0 multiplicity 1
 C         2.731203         1.395584        -0.070330
 C         1.869913         0.126407         0.020358
 C         0.506769        -0.503405        -0.955075
 C         0.289193        -1.192226         0.438435
 C         0.633341         0.051431         1.152079
 O         1.073845        -0.061874         2.512290
 C         1.847409        -1.278639         2.744692
 O         2.548148        -1.756361         1.586789
 C         1.932979        -1.449743         0.421804
 H         3.250545         1.636900         0.800747
 H         3.437873         1.413825        -0.853414
 H         2.196924         2.348165        -0.381595
 H        -0.268859         0.170733        -1.180600
 H         0.739206        -0.968195        -1.915321
 H        -0.456311        -1.926888         0.903108
 H        -0.123410         0.826357         1.067166
 H         2.615027        -1.084322         3.584620
 H         1.093327        -2.025529         3.216248
 H         2.270165        -2.084541        -0.360576
