19
Iteration:  2273
 C         2.643697         1.196586        -0.093372
 C         1.703280         0.157367         0.052941
 C         0.663924        -0.400037        -0.890842
 C         0.416518        -1.281194         0.385840
 C         0.556326         0.077942         1.223289
 O         1.101461         0.006623         2.514736
 C         1.802330        -1.262276         2.701849
 O         2.539958        -1.775816         1.592421
 C         1.975071        -1.375105         0.423818
 H         3.077904         1.510041         0.897528
 H         3.422945         1.105025        -0.907474
 H         2.330196         2.129956        -0.574493
 H        -0.241837         0.342421        -1.138291
 H         0.943444        -0.954622        -1.804954
 H        -0.452912        -2.044686         0.360106
 H        -0.247562         0.855925         1.185934
 H         2.612428        -1.081134         3.496442
 H         1.177074        -2.089377         3.082229
 H         2.416209        -1.815010        -0.459257
