19
Iteration:  4932
 C         2.685814         1.273885        -0.161796
 C         1.695441         0.079702         0.020873
 C         0.631963        -0.450519        -0.991533
 C         0.460282        -1.303206         0.217342
 C         0.611172         0.036406         1.164632
 O         1.262183         0.165234         2.596549
 C         1.586029        -1.254251         2.874809
 O         2.487776        -1.766505         1.707368
 C         1.954103        -1.447696         0.393067
 H         3.600901         1.279435         0.504544
 H         3.109472         1.104814        -1.169969
 H         2.140934         2.240213        -0.149024
 H        -0.138524         0.264247        -1.350442
 H         1.099424        -0.889859        -1.734712
 H        -0.336780        -2.088890         0.440469
 H        -0.208905         0.756372         1.175198
 H         2.208425        -1.128264         3.814379
 H         0.825754        -2.100888         3.124024
 H         2.638966        -2.011618        -0.230407
