19
Iteration:  4500
 C         2.880809         1.106649        -0.243457
 C         1.715575         0.178183         0.022312
 C         0.662199        -0.414865        -0.916778
 C         0.445994        -1.293154         0.276644
 C         0.465767        -0.011994         1.199444
 O         0.992673        -0.027751         2.553178
 C         1.688314        -1.222021         2.826916
 O         2.608046        -1.578053         1.694955
 C         1.932936        -1.365834         0.502897
 H         3.534370         1.275506         0.673176
 H         3.494467         0.650218        -1.051814
 H         2.518663         2.071306        -0.711218
 H        -0.106077         0.277244        -1.203485
 H         0.927587        -0.963814        -1.920590
 H        -0.297989        -2.018529         0.415319
 H        -0.352475         0.715943         1.140293
 H         2.325509        -1.053432         3.658890
 H         0.912942        -2.037215         2.773593
 H         2.364146        -1.927860        -0.258984
