19
Iteration:  1460
 C         2.689803         1.180403        -0.238125
 C         1.639319         0.107945         0.027067
 C         0.553269        -0.381351        -0.880455
 C         0.369592        -1.255606         0.330352
 C         0.631077         0.066913         1.246166
 O         1.162356        -0.105212         2.559782
 C         1.712286        -1.341763         2.726118
 O         2.679646        -1.510364         1.694430
 C         1.954314        -1.427253         0.392897
 H         3.228571         1.473257         0.681135
 H         3.460707         0.919790        -0.944890
 H         2.267403         2.160388        -0.624058
 H        -0.115371         0.473165        -1.087156
 H         0.780285        -1.003167        -1.824316
 H        -0.655861        -1.759500         0.466181
 H        -0.162036         0.761662         1.398508
 H         2.205549        -1.280212         3.669255
 H         0.948741        -2.111785         2.633243
 H         2.416074        -2.159324        -0.187092
