19
Iteration:   943charge 0 multiplicity 1
 C         2.588053         1.199000        -0.272986
 C         1.660766         0.121390         0.104557
 C         0.594815        -0.330774        -0.864836
 C         0.408039        -1.274246         0.360625
 C         0.681364         0.026941         1.190950
 O         1.191059        -0.032670         2.506573
 C         1.745284        -1.293200         2.774127
 O         2.529224        -1.660099         1.655947
 C         1.995432        -1.375583         0.446706
 H         3.300211         1.294821         0.537907
 H         3.233474         0.731339        -1.099616
 H         2.155448         2.156009        -0.494635
 H        -0.240127         0.382032        -1.146681
 H         1.025640        -0.750851        -1.799282
 H        -0.385290        -2.075774         0.573321
 H        -0.128994         0.735726         1.117280
 H         2.417471        -1.192438         3.633767
 H         0.917338        -2.108135         3.039965
 H         2.532275        -1.953592        -0.335885
