19
Iteration:  4268charge 0 multiplicity 1
 C         2.561116         1.317149        -0.130401
 C         1.747603         0.050454         0.096283
 C         0.796190        -0.489517        -1.005800
 C         0.334950        -1.277233         0.214124
 C         0.671110         0.107880         1.172358
 O         1.257116         0.130846         2.552385
 C         1.697482        -1.260125         2.761547
 O         2.455583        -1.784853         1.757064
 C         1.903030        -1.488262         0.460958
 H         3.151581         1.596077         0.729314
 H         3.255228         1.346938        -1.037812
 H         1.862940         2.085488        -0.505346
 H         0.189357         0.288362        -1.580209
 H         1.177450        -1.142021        -1.769220
 H        -0.582508        -1.910051         0.348841
 H        -0.050263         0.936069         1.151988
 H         2.296592        -1.223263         3.746177
 H         0.739304        -1.848594         2.768893
 H         2.458560        -2.176476        -0.132149
