19
Iteration:  1187charge 0 multiplicity 1
 C         2.737151         1.159594        -0.152569
 C         1.669409         0.062421         0.010721
 C         0.610261        -0.477384        -0.901110
 C         0.361171        -1.227562         0.477904
 C         0.632690         0.100261         1.246916
 O         1.015314        -0.100473         2.495212
 C         1.854974        -1.289117         2.681689
 O         2.623473        -1.520264         1.594981
 C         1.870374        -1.362789         0.428467
 H         3.701492         1.008318         0.419640
 H         3.010704         1.332657        -1.169398
 H         2.252721         2.106800         0.124734
 H        -0.189394         0.256704        -1.018442
 H         1.010728        -0.972172        -1.813250
 H        -0.245608        -2.056354         0.552696
 H        -0.070390         0.918551         1.265143
 H         2.491577        -0.971828         3.517459
 H         1.129635        -2.100711         2.932980
 H         2.287498        -2.158044        -0.267433
