19
Iteration:  3900charge 0 multiplicity 1
 C         2.667735         1.293775        -0.172745
 C         1.696799         0.099759         0.057504
 C         0.707939        -0.431647        -0.925183
 C         0.375376        -1.209540         0.330793
 C         0.648337         0.019395         1.151905
 O         1.170613        -0.009815         2.508958
 C         1.707250        -1.301451         2.786266
 O         2.536801        -1.656096         1.701830
 C         1.914680        -1.456962         0.429621
 H         3.214472         1.658419         0.670680
 H         3.229112         0.921472        -1.024370
 H         1.934324         2.050660        -0.493148
 H        -0.135677         0.205677        -1.062577
 H         1.131848        -0.807817        -1.938773
 H        -0.409705        -1.975507         0.427962
 H        -0.020127         0.796794         1.294638
 H         2.322544        -1.387298         3.707081
 H         0.714232        -1.831274         2.865020
 H         2.522054        -2.120976        -0.221589
