19
Iteration:  3531charge 0 multiplicity 1
 C         2.749759         1.170905        -0.272502
 C         1.744524         0.064838         0.051652
 C         0.668528        -0.354848        -0.801372
 C         0.361000        -1.216795         0.335286
 C         0.617236         0.056818         1.205033
 O         1.057848        -0.065767         2.633016
 C         1.716740        -1.321004         2.692939
 O         2.607095        -1.531354         1.625060
 C         1.892424        -1.433071         0.412888
 H         3.368602         1.252289         0.595131
 H         3.289697         0.859242        -1.130379
 H         2.033753         2.052825        -0.281797
 H         0.003167         0.454008        -1.079717
 H         0.892450        -0.945561        -1.786418
 H        -0.403084        -2.058681         0.347403
 H        -0.129593         0.943559         1.275735
 H         2.423823        -1.234387         3.557614
 H         0.975694        -2.230321         2.741067
 H         2.340307        -2.120824        -0.356347
