19
Iteration:  1354charge 0 multiplicity 1
 C         2.764091         1.179483        -0.127133
 C         1.654311         0.148226         0.008382
 C         0.516864        -0.470373        -0.884843
 C         0.427742        -1.302705         0.425831
 C         0.542617         0.061426         1.207994
 O         1.118954         0.004719         2.510864
 C         1.754627        -1.255278         2.695381
 O         2.618724        -1.643685         1.613374
 C         1.969061        -1.326450         0.397974
 H         3.428381         1.024892         0.698736
 H         3.334768         1.095085        -1.065620
 H         2.488302         2.289739        -0.097433
 H        -0.417735         0.064154        -0.815924
 H         0.866692        -0.931852        -1.829559
 H        -0.149339        -2.122167         0.748576
 H        -0.365481         0.734692         1.178027
 H         2.346879        -1.363155         3.597581
 H         1.006604        -2.143276         2.887531
 H         2.541794        -1.815924        -0.482750
