19
Iteration:   127charge 0 multiplicity 1
 C         2.760233         1.174136        -0.240311
 C         1.728667         0.043637         0.117697
 C         0.593613        -0.309846        -0.901737
 C         0.301894        -1.262519         0.287055
 C         0.545560        -0.051055         1.188536
 O         0.997367        -0.051612         2.578364
 C         1.970377        -1.083423         2.823139
 O         2.529240        -1.771475         1.639138
 C         1.953480        -1.357879         0.391177
 H         3.530912         1.338136         0.522272
 H         3.282220         0.802185        -1.200221
 H         2.231021         2.117011        -0.458727
 H        -0.181042         0.434257        -1.218293
 H         1.027777        -0.838609        -1.738528
 H        -0.617639        -1.948152         0.302442
 H        -0.214345         0.727619         1.242431
 H         2.764411        -0.612291         3.445359
 H         1.415172        -1.759266         3.517121
 H         2.517504        -1.920793        -0.383603
