19
Iteration:   172
 C         2.882087         1.139315         0.038104
 C         1.728022         0.096569         0.061171
 C         0.557363        -0.428533        -0.956258
 C         0.253559        -1.210884         0.283300
 C         0.547595        -0.020601         1.139676
 O         0.915660        -0.261500         2.567712
 C         2.228344        -0.737098         2.678366
 O         2.375878        -1.803312         1.621113
 C         1.867382        -1.461408         0.389933
 H         3.407080         1.100908         0.979431
 H         3.583186         1.064542        -0.895732
 H         2.389015         2.102526        -0.023787
 H        -0.073760         0.480483        -1.168674
 H         0.748625        -0.981929        -1.834858
 H        -0.546668        -1.877684         0.464409
 H        -0.213230         0.690035         1.336683
 H         2.871310         0.144535         2.611596
 H         2.371955        -1.116308         3.728960
 H         2.441140        -2.102880        -0.340017
