19
Iteration:  2881charge 0 multiplicity 1
 C         2.734051         1.303535        -0.239728
 C         1.696649         0.076952         0.088572
 C         0.668047        -0.380048        -0.856890
 C         0.341717        -1.263369         0.417147
 C         0.623563         0.132265         1.177487
 O         1.114439        -0.054368         2.487798
 C         1.688441        -1.395734         2.666094
 O         2.606133        -1.694085         1.679565
 C         1.972297        -1.368708         0.500640
 H         3.079069         1.619060         0.699862
 H         3.461912         1.044128        -1.089486
 H         2.045316         2.044059        -0.661467
 H        -0.174306         0.324752        -1.035548
 H         0.852274        -0.838478        -1.785066
 H        -0.349839        -2.129895         0.350925
 H        -0.155096         0.980351         1.292229
 H         2.234658        -1.285617         3.582625
 H         0.843597        -2.080681         2.750359
 H         2.377401        -1.948401        -0.324143
