19
Iteration:   354
 C         2.677410         1.182654        -0.229448
 C         1.735517         0.038490         0.076406
 C         0.596491        -0.428025        -0.863099
 C         0.245749        -1.216920         0.423070
 C         0.688858         0.072273         1.196123
 O         1.172581        -0.014003         2.546904
 C         1.683663        -1.313112         2.721620
 O         2.593569        -1.600101         1.632937
 C         1.995932        -1.400119         0.430712
 H         3.242882         1.573692         0.631820
 H         3.346104         0.918151        -1.064283
 H         2.045791         2.035944        -0.588153
 H        -0.101517         0.373142        -1.192230
 H         0.948745        -0.989800        -1.749098
 H        -0.704820        -1.865872         0.547943
 H         0.063012         1.002653         1.037475
 H         2.370797        -1.185988         3.576110
 H         1.043647        -2.215315         2.655542
 H         2.442137        -2.028309        -0.297455
