19
Iteration:  1379charge 0 multiplicity 1
 C         2.610102         1.192179        -0.098956
 C         1.724310         0.021516         0.032603
 C         0.600641        -0.383836        -0.886520
 C         0.318877        -1.218824         0.359286
 C         0.671124         0.042553         1.206223
 O         1.089822        -0.001452         2.505025
 C         1.809908        -1.256507         2.726697
 O         2.672264        -1.581829         1.632457
 C         1.913673        -1.485183         0.390706
 H         3.496171         1.208524         0.549641
 H         2.872602         1.449856        -1.167690
 H         2.058346         2.047748         0.166719
 H        -0.262446         0.253754        -1.220765
 H         1.020219        -1.042719        -1.616487
 H        -0.582808        -1.845701         0.545946
 H        -0.000527         0.937220         1.039760
 H         2.402991        -1.222391         3.692910
 H         1.132600        -2.140200         2.906021
 H         2.326055        -2.238893        -0.364029
