19
Iteration:  1378
 C         2.616454         1.191822        -0.096186
 C         1.716312         0.028822         0.027524
 C         0.590198        -0.376602        -0.894094
 C         0.325284        -1.231534         0.362557
 C         0.668636         0.043679         1.210447
 O         1.085506         0.005036         2.512480
 C         1.809767        -1.253174         2.723400
 O         2.678598        -1.590137         1.632050
 C         1.920659        -1.484533         0.392956
 H         3.491179         1.196070         0.538996
 H         2.889627         1.430269        -1.170285
 H         2.041877         2.059350         0.171334
 H        -0.245483         0.265802        -1.250917
 H         1.012811        -1.071605        -1.584470
 H        -0.566958        -1.811831         0.542864
 H         0.002312         0.941531         1.015045
 H         2.374549        -1.212363         3.697603
 H         1.141855        -2.173752         2.880741
 H         2.305200        -2.265850        -0.379810
