19
Iteration:   435charge 0 multiplicity 1
 C         2.699910         1.193348        -0.173078
 C         1.696916         0.097411         0.034977
 C         0.519845        -0.444826        -0.912800
 C         0.305192        -1.189861         0.378457
 C         0.600261         0.065538         1.160735
 O         1.161190        -0.046475         2.517871
 C         1.808653        -1.250938         2.736371
 O         2.643445        -1.595199         1.681093
 C         1.953261        -1.465038         0.446043
 H         3.511354         1.093563         0.587090
 H         3.229856         1.038611        -1.128051
 H         2.369767         2.214393        -0.040410
 H        -0.113005         0.435159        -1.108679
 H         0.674887        -1.046068        -1.820534
 H        -0.532229        -1.952930         0.422652
 H        -0.224266         0.765254         1.213086
 H         2.284786        -1.135884         3.761267
 H         1.011530        -2.025054         2.727974
 H         2.344885        -2.169946        -0.351259
