19
Iteration:  2178charge 0 multiplicity 1
 C         2.757779         1.094137        -0.201632
 C         1.646312         0.152393        -0.031621
 C         0.503963        -0.352300        -0.945972
 C         0.400840        -1.200940         0.438261
 C         0.653244         0.060728         1.210675
 O         1.047347        -0.117565         2.584403
 C         1.702272        -1.434868         2.756493
 O         2.647316        -1.569786         1.682837
 C         1.992135        -1.245277         0.378855
 H         3.459010         1.222150         0.656397
 H         3.280082         1.027481        -1.170322
 H         2.638822         2.172683        -0.519174
 H        -0.370240         0.185806        -1.262342
 H         0.853378        -0.935708        -1.808203
 H        -0.229163        -1.954945         0.867191
 H        -0.202805         0.799591         1.240284
 H         2.392906        -1.327254         3.665047
 H         0.894316        -2.288918         2.624400
 H         2.722842        -1.771874        -0.331660
