19
Iteration:  4391charge 0 multiplicity 1
 C         2.800904         1.125192        -0.209503
 C         1.702191         0.168730         0.061638
 C         0.653244        -0.410935        -0.897136
 C         0.517464        -1.283404         0.304966
 C         0.621209         0.064653         1.093640
 O         0.996287        -0.024362         2.551400
 C         1.617701        -1.192504         2.793541
 O         2.543558        -1.608567         1.709278
 C         1.962904        -1.486369         0.427722
 H         3.428107         1.373522         0.636674
 H         3.357912         0.781831        -1.023071
 H         2.342415         2.073595        -0.385796
 H        -0.221596         0.128497        -0.958959
 H         1.068212        -0.760010        -1.894750
 H        -0.193283        -2.029554         0.528153
 H        -0.134678         0.912180         1.123537
 H         2.415195        -0.934432         3.465321
 H         0.908369        -2.026788         3.129086
 H         2.315528        -2.198974        -0.194647
