19
Iteration:  4566charge 0 multiplicity 1
 C         2.786285         1.122452        -0.165419
 C         1.676183         0.117523         0.064913
 C         0.658085        -0.480160        -0.907958
 C         0.375901        -1.313619         0.297484
 C         0.633382         0.049450         1.146408
 O         1.071728         0.037663         2.534636
 C         1.633780        -1.197317         2.762218
 O         2.548920        -1.594495         1.693402
 C         2.022338        -1.414248         0.449538
 H         3.534982         1.088241         0.702706
 H         3.285653         1.201551        -1.146683
 H         2.273486         2.151051        -0.142423
 H        -0.149690         0.214407        -1.166604
 H         0.934180        -0.990742        -1.920168
 H        -0.416164        -2.017557         0.366049
 H        -0.181365         0.807852         1.087496
 H         2.247488        -1.155940         3.645255
 H         0.887868        -2.004003         2.942115
 H         2.655549        -1.976029        -0.285805
