19
Iteration:  3068
 C         2.599303         1.322506        -0.175452
 C         1.751095         0.141425         0.002459
 C         0.665410        -0.415281        -0.842762
 C         0.354940        -1.231041         0.384089
 C         0.663179         0.064680         1.131340
 O         1.177685        -0.048799         2.456154
 C         1.680777        -1.337429         2.716899
 O         2.575765        -1.809969         1.705505
 C         1.944508        -1.394010         0.498150
 H         3.287644         1.641591         0.602267
 H         3.395880         1.214625        -1.015228
 H         2.175319         2.273800        -0.345140
 H        -0.123909         0.365282        -1.151626
 H         0.901454        -0.827558        -1.772143
 H        -0.676554        -1.731975         0.523508
 H         0.061230         1.135774         1.332809
 H         2.286718        -1.129276         3.627173
 H         0.853506        -2.020389         2.880605
 H         2.312942        -1.989147        -0.351426
