19
Iteration:  3495
 C         2.881298         1.057441        -0.210450
 C         1.669314         0.251644        -0.033367
 C         0.500170        -0.346779        -0.796415
 C         0.445709        -1.255656         0.419184
 C         0.482201         0.037595         1.209436
 O         1.046148        -0.114940         2.516758
 C         1.728119        -1.312367         2.747982
 O         2.633820        -1.572519         1.600774
 C         1.977187        -1.286691         0.412599
 H         3.389640         1.249298         0.787204
 H         3.580660         0.543081        -0.865327
 H         2.904563         1.993642        -0.746349
 H        -0.386781         0.333831        -0.901882
 H         0.693792        -0.969331        -1.636071
 H        -0.259304        -2.059423         0.505773
 H        -0.424832         0.575821         1.243863
 H         2.293009        -1.288586         3.689432
 H         1.037122        -2.179444         2.842612
 H         2.517432        -1.917947        -0.296117
