19
Iteration:  4991charge 0 multiplicity 1
 C         2.736009         1.142358        -0.195507
 C         1.740976         0.082864        -0.009653
 C         0.646308        -0.477686        -0.938280
 C         0.351714        -1.198944         0.318548
 C         0.689645         0.127839         1.222921
 O         1.056248        -0.028274         2.579829
 C         1.678703        -1.289769         2.729394
 O         2.574334        -1.569897         1.717105
 C         1.891416        -1.446639         0.476824
 H         3.440084         1.255140         0.684125
 H         3.354861         1.058948        -1.143120
 H         2.379473         2.201203        -0.300920
 H        -0.031928         0.238290        -1.318071
 H         1.061370        -1.022574        -1.878242
 H        -0.302828        -2.073346         0.368255
 H         0.054923         1.025377         1.082242
 H         2.208109        -1.196962         3.650502
 H         0.971272        -2.148072         2.664070
 H         2.388855        -2.029619        -0.308887
