19
Iteration:  3092
 C         2.578138         1.267939        -0.077567
 C         1.757394         0.069626         0.082360
 C         0.619327        -0.393067        -1.020415
 C         0.398437        -1.199656         0.301136
 C         0.718865         0.052111         1.195742
 O         1.227008         0.057540         2.563029
 C         1.715302        -1.320424         2.715756
 O         2.511691        -1.727372         1.661641
 C         1.905574        -1.496070         0.429876
 H         3.282776         1.651625         0.708774
 H         3.201381         1.252613        -0.951042
 H         1.939160         2.119352        -0.228879
 H        -0.030202         0.366127        -1.438801
 H         1.014673        -0.930121        -1.829673
 H        -0.426844        -1.810126         0.720318
 H        -0.188098         0.734460         1.247164
 H         2.407960        -1.260321         3.579055
 H         0.829802        -1.978527         2.900345
 H         2.274732        -2.181032        -0.329996
