19
Iteration:  4537charge 0 multiplicity 1
 C         2.861377         1.041424        -0.191270
 C         1.662957         0.138590        -0.013390
 C         0.635108        -0.424441        -0.915119
 C         0.425003        -1.233001         0.388538
 C         0.637248         0.078843         1.109814
 O         0.910774        -0.084903         2.520174
 C         1.649779        -1.258720         2.695413
 O         2.702642        -1.431371         1.700039
 C         1.939293        -1.421650         0.513212
 H         3.423628         1.000604         0.708147
 H         3.510738         0.831826        -1.014829
 H         2.549330         2.066288        -0.197800
 H        -0.258195         0.251776        -0.905749
 H         0.847197        -0.998626        -1.779139
 H        -0.415671        -2.060065         0.489420
 H        -0.161474         0.868147         1.151926
 H         2.102793        -1.280713         3.766258
 H         1.051053        -2.193674         2.787377
 H         2.241756        -2.250994        -0.084694
