19
Iteration:  1782charge 0 multiplicity 1
 C         2.745658         1.254582        -0.267683
 C         1.734594         0.083034         0.022025
 C         0.617924        -0.428482        -0.894924
 C         0.318305        -1.186693         0.364204
 C         0.656217         0.104111         1.273553
 O         1.006671        -0.168317         2.562342
 C         1.822065        -1.343082         2.725220
 O         2.636292        -1.602083         1.643509
 C         1.873699        -1.344840         0.426971
 H         3.488951         1.346476         0.586479
 H         3.332524         1.276520        -1.234157
 H         2.295887         2.218102        -0.277980
 H        -0.212431         0.284880        -1.234144
 H         0.810148        -1.107787        -1.745688
 H        -0.453048        -1.899014         0.619321
 H         0.040059         1.065706         1.374932
 H         2.295659        -1.142416         3.687362
 H         1.156238        -2.192804         2.907697
 H         2.172223        -2.174038        -0.275704
