19
Iteration:  4821charge 0 multiplicity 1
 C         2.787530         1.195916        -0.208751
 C         1.800938         0.116439         0.030575
 C         0.665211        -0.478498        -0.903335
 C         0.436805        -1.233210         0.417815
 C         0.581894         0.091614         1.179928
 O         0.948744        -0.007094         2.551019
 C         1.707366        -1.235741         2.761276
 O         2.570548        -1.660002         1.620615
 C         1.947314        -1.414359         0.456825
 H         3.367129         1.478450         0.683054
 H         3.507124         0.828798        -0.991190
 H         2.225731         2.052306        -0.675052
 H        -0.094395         0.328067        -1.141128
 H         0.885620        -1.030774        -1.784637
 H        -0.237609        -2.125346         0.586912
 H        -0.195932         0.860888         0.999303
 H         2.176859        -1.133567         3.762593
 H         1.046897        -2.020751         2.882175
 H         2.317997        -2.052688        -0.383244
