19
Iteration:  2737charge 0 multiplicity 1
 C         2.622867         1.314644        -0.163799
 C         1.784076         0.126078         0.134671
 C         0.676858        -0.366507        -0.870174
 C         0.316051        -1.241329         0.371340
 C         0.610691         0.046844         1.178561
 O         1.186087        -0.004423         2.488748
 C         1.687539        -1.232823         2.728656
 O         2.549757        -1.832270         1.638750
 C         2.000739        -1.468371         0.410627
 H         3.219466         1.378866         0.730330
 H         3.127374         1.289718        -1.197663
 H         1.837613         2.149968        -0.126742
 H         0.023733         0.442474        -1.187554
 H         1.014844        -0.849501        -1.819393
 H        -0.393379        -2.036908         0.450478
 H        -0.147499         0.905043         1.045634
 H         2.349624        -1.111205         3.570719
 H         0.899727        -1.950719         2.976718
 H         2.350216        -1.965330        -0.465096
