19
Iteration:  4571charge 0 multiplicity 1
 C         2.735141         1.152463        -0.158309
 C         1.716180         0.136227         0.062142
 C         0.679971        -0.462751        -0.933602
 C         0.409538        -1.324089         0.335511
 C         0.644707         0.057468         1.138792
 O         1.080903         0.047919         2.531739
 C         1.643317        -1.193588         2.775144
 O         2.527765        -1.640865         1.689391
 C         1.999060        -1.398448         0.461148
 H         3.423325         0.997268         0.626260
 H         3.229995         1.067387        -1.132766
 H         2.350804         2.140389        -0.116987
 H        -0.241568         0.120015        -1.209004
 H         0.977163        -0.904741        -1.828069
 H        -0.389711        -2.159253         0.259369
 H        -0.220238         0.716959         0.994384
 H         2.342624        -1.034537         3.663439
 H         0.829498        -1.987102         2.811241
 H         2.460266        -2.055749        -0.277168
