19
Iteration:  4804charge 0 multiplicity 1
 C         2.729857         1.282127        -0.228000
 C         1.714162         0.086107         0.035863
 C         0.653994        -0.451183        -0.950580
 C         0.365083        -1.247094         0.384886
 C         0.739715         0.089954         1.117320
 O         1.083586        -0.031193         2.518272
 C         1.659532        -1.273553         2.758187
 O         2.517070        -1.648998         1.793342
 C         1.972082        -1.443039         0.388517
 H         3.223991         1.316775         0.760556
 H         3.399155         1.224255        -1.068245
 H         2.134397         2.182789        -0.245625
 H        -0.232631         0.108967        -1.331650
 H         1.149704        -1.188654        -1.683965
 H        -0.484920        -1.910223         0.572458
 H        -0.002617         0.879839         1.117729
 H         2.379556        -1.054258         3.568948
 H         0.752327        -2.027739         2.977199
 H         2.492787        -2.152289        -0.232052
