19
Iteration:  3185
 C         2.819416         1.165135        -0.248863
 C         1.726635         0.155980         0.003781
 C         0.513909        -0.352789        -0.839227
 C         0.350231        -1.189715         0.398351
 C         0.630706         0.075007         1.200810
 O         0.983858        -0.187322         2.549934
 C         1.728382        -1.320258         2.761151
 O         2.696860        -1.598838         1.668227
 C         1.915029        -1.365866         0.412758
 H         3.400730         1.124986         0.677619
 H         3.545622         0.810689        -1.108985
 H         2.491861         2.255125        -0.454679
 H        -0.131853         0.485593        -1.252408
 H         0.912063        -0.775331        -1.820346
 H        -0.571173        -1.769909         0.593703
 H        -0.078033         0.852741         1.043947
 H         2.381344        -1.092030         3.624185
 H         1.052823        -2.288524         2.851006
 H         2.326329        -2.021491        -0.410778
