19
Iteration:   186charge 0 multiplicity 1
 C         2.746128         1.072868         0.041763
 C         1.704791         0.026437         0.171023
 C         0.602219        -0.273356        -0.968537
 C         0.313901        -1.255525         0.197728
 C         0.581474         0.019694         1.209495
 O         0.896153        -0.274197         2.601088
 C         2.242195        -0.651316         2.561654
 O         2.385736        -1.821435         1.714994
 C         1.861284        -1.517906         0.383973
 H         3.514234         1.030974         0.836700
 H         3.305830         0.807650        -0.856424
 H         2.440724         2.120650        -0.098017
 H        -0.215255         0.409308        -1.202283
 H         1.019272        -0.711177        -1.916689
 H        -0.471912        -1.936313         0.229784
 H        -0.066964         0.912326         1.031623
 H         2.845363         0.051615         2.108377
 H         2.537328        -1.082214         3.573046
 H         2.370485        -2.128153        -0.424924
