19
Iteration:   668charge 0 multiplicity 1
 C         2.753893         1.175609        -0.156280
 C         1.710731         0.116005         0.124894
 C         0.490107        -0.361548        -0.883805
 C         0.404720        -1.312898         0.342559
 C         0.603726         0.070046         1.225821
 O         1.037966         0.021487         2.531929
 C         1.872880        -1.122916         2.814482
 O         2.578959        -1.784192         1.594851
 C         1.919022        -1.427243         0.320747
 H         3.493571         1.305441         0.648842
 H         3.267333         0.802297        -1.083907
 H         2.301527         2.153286        -0.491197
 H        -0.415705         0.225946        -0.904650
 H         0.741506        -0.900323        -1.858191
 H        -0.338393        -2.181571         0.205591
 H        -0.027255         0.956190         1.196985
 H         2.717492        -0.711518         3.310705
 H         1.320641        -1.923540         3.421113
 H         2.438283        -2.153951        -0.439033
