19
Iteration:  4680charge 0 multiplicity 1
 C         2.894987         1.051690        -0.231252
 C         1.655429         0.174177        -0.045231
 C         0.594661        -0.420680        -0.915992
 C         0.445627        -1.233429         0.367687
 C         0.536028        -0.012596         1.153145
 O         0.978748        -0.045918         2.590232
 C         1.692483        -1.260320         2.766772
 O         2.602443        -1.509046         1.690151
 C         2.001729        -1.323449         0.427626
 H         3.197341         1.195120         0.790318
 H         3.661366         0.427022        -0.704419
 H         2.714885         1.978952        -0.776966
 H        -0.301470         0.307149        -1.062251
 H         0.794528        -0.949748        -1.825400
 H        -0.259759        -2.115502         0.580136
 H        -0.203102         0.807516         1.161812
 H         2.142946        -1.322632         3.814260
 H         1.056892        -2.106674         2.890920
 H         2.477730        -2.020117        -0.134662
