19
Iteration:   882charge 0 multiplicity 1
 C         2.702954         1.150953        -0.203574
 C         1.694877         0.115044         0.100836
 C         0.564028        -0.353451        -0.911506
 C         0.409932        -1.268751         0.399324
 C         0.578761         0.035087         1.223512
 O         1.182394        -0.015019         2.462697
 C         1.772130        -1.345258         2.707081
 O         2.605549        -1.576822         1.650747
 C         1.875309        -1.374001         0.488594
 H         3.280912         1.440794         0.755315
 H         3.434619         0.757825        -0.885965
 H         2.267137         2.027947        -0.766569
 H        -0.235059         0.370740        -1.094936
 H         0.833808        -0.951138        -1.829890
 H        -0.159636        -2.175276         0.546282
 H        -0.308923         0.773353         1.230887
 H         2.387364        -1.062894         3.635467
 H         0.939016        -2.092071         2.774124
 H         2.217006        -2.114908        -0.335601
