19
Iteration:  3251charge 0 multiplicity 1
 C         2.610533         1.324729        -0.106838
 C         1.673932         0.071330         0.001004
 C         0.587782        -0.468978        -0.922443
 C         0.381564        -1.164600         0.407901
 C         0.687975         0.142666         1.032783
 O         1.236820        -0.060312         2.530030
 C         1.671970        -1.302693         2.746555
 O         2.582173        -1.811368         1.713964
 C         1.969858        -1.369930         0.426281
 H         3.278850         1.407007         0.774298
 H         3.288185         1.240896        -1.054397
 H         1.946105         2.256227        -0.115016
 H        -0.143951         0.396129        -1.092333
 H         0.977304        -0.860752        -1.899710
 H        -0.501793        -1.807828         0.624820
 H         0.037317         0.915814         1.274095
 H         2.240640        -1.287763         3.685463
 H         0.872770        -2.008197         2.713238
 H         2.339266        -2.087094        -0.343706
