19
Iteration:   858charge 0 multiplicity 1
 C         2.759351         1.110891        -0.160722
 C         1.627319         0.121011         0.080029
 C         0.475857        -0.397046        -0.858805
 C         0.384943        -1.331402         0.379995
 C         0.588062         0.024848         1.237290
 O         1.142776         0.059687         2.524650
 C         1.709607        -1.221006         2.703563
 O         2.661828        -1.662312         1.627632
 C         2.011618        -1.360736         0.378936
 H         3.337053         1.059883         0.808135
 H         3.490563         0.756140        -0.933210
 H         2.554517         2.127432        -0.511386
 H        -0.517928         0.060645        -0.950494
 H         0.719524        -0.904580        -1.757505
 H        -0.425226        -1.968279         0.398542
 H        -0.135536         0.875713         1.186588
 H         2.297257        -1.127154         3.689654
 H         0.877943        -1.924331         2.571463
 H         2.684965        -1.654263        -0.565105
