19
Iteration:  4382charge 0 multiplicity 1
 C         2.848495         1.095397        -0.223761
 C         1.737213         0.099156        -0.002724
 C         0.625659        -0.407228        -0.922272
 C         0.453986        -1.277826         0.345573
 C         0.583430         0.118665         1.168534
 O         0.901576        -0.060013         2.523696
 C         1.717618        -1.258096         2.817235
 O         2.537191        -1.550543         1.701745
 C         2.009754        -1.412369         0.446515
 H         3.462253         1.150229         0.674324
 H         3.482505         0.911044        -1.012673
 H         2.443052         2.055032        -0.481172
 H        -0.141450         0.265714        -1.152685
 H         0.959995        -0.897480        -1.861783
 H        -0.353006        -1.971734         0.560082
 H        -0.117162         1.020626         1.139795
 H         2.373786        -0.942335         3.628567
 H         1.085489        -2.146018         3.072523
 H         2.497146        -2.150707        -0.228342
