19
Iteration:  3362
 C         2.720274         1.144330        -0.213008
 C         1.728233         0.087733         0.002309
 C         0.600948        -0.310941        -0.946282
 C         0.416217        -1.193019         0.473834
 C         0.638917         0.094082         1.209847
 O         1.023968        -0.110096         2.579252
 C         1.718747        -1.348044         2.686969
 O         2.677553        -1.572288         1.623746
 C         1.884824        -1.423326         0.483830
 H         3.439795         1.191509         0.699700
 H         3.365705         0.915026        -1.170816
 H         2.120860         2.056596        -0.151548
 H        -0.222210         0.543263        -1.150840
 H         0.954640        -0.880744        -1.791620
 H        -0.415974        -1.894929         0.565492
 H        -0.043682         0.870988         0.979053
 H         2.308238        -1.273630         3.594493
 H         0.935010        -2.159725         2.635439
 H         2.272891        -2.043403        -0.329523
