19
Iteration:  4590charge 0 multiplicity 1
 C         2.716773         1.248375        -0.150205
 C         1.668433         0.136700         0.066360
 C         0.703621        -0.447939        -0.950079
 C         0.430616        -1.278837         0.384031
 C         0.555917         0.056313         1.138248
 O         1.118170         0.090909         2.410463
 C         1.690237        -1.218191         2.756131
 O         2.494704        -1.815928         1.766573
 C         2.019149        -1.442956         0.439341
 H         3.507568         1.341072         0.629698
 H         3.171019         1.352330        -1.147137
 H         2.128525         2.209498        -0.216455
 H        -0.001088         0.323589        -1.351247
 H         1.084312        -1.027194        -1.858096
 H        -0.181824        -2.125079         0.771293
 H        -0.246941         0.857492         1.086974
 H         2.365176        -1.081084         3.687832
 H         0.847396        -1.876631         3.117631
 H         2.535630        -2.003854        -0.265638
