19
Iteration:  2430charge 0 multiplicity 1
 C         2.636032         1.278604        -0.003546
 C         1.635706         0.048574        -0.004420
 C         0.650746        -0.416789        -0.973346
 C         0.237878        -1.253295         0.378378
 C         0.663387         0.159484         1.173253
 O         1.229281        -0.020926         2.442283
 C         1.805844        -1.339365         2.714546
 O         2.641092        -1.657821         1.682145
 C         1.857228        -1.447269         0.417914
 H         3.142832         1.242631         0.990487
 H         3.230641         1.201456        -0.910901
 H         2.097468         2.261335         0.057605
 H        -0.088597         0.297629        -1.312236
 H         1.042645        -1.168316        -1.799568
 H        -0.532158        -1.966953         0.462935
 H         0.008753         1.054789         1.334542
 H         2.328679        -1.263435         3.676784
 H         0.963464        -2.011895         2.778597
 H         2.478777        -2.131336        -0.214149
