19
Iteration:  2703charge 0 multiplicity 1
 C         2.718915         1.244407        -0.263706
 C         1.736471         0.115685         0.030118
 C         0.513274        -0.405649        -0.952215
 C         0.381786        -1.146992         0.394028
 C         0.685052         0.075875         1.170225
 O         1.101630        -0.130486         2.612304
 C         1.618549        -1.368777         2.773205
 O         2.617389        -1.637143         1.665104
 C         1.992352        -1.373113         0.392626
 H         3.162948         1.561037         0.753705
 H         3.640475         0.990059        -0.861730
 H         2.108718         2.167196        -0.600516
 H        -0.129626         0.384986        -1.213702
 H         0.960443        -1.031879        -1.775667
 H        -0.333488        -1.916898         0.543320
 H         0.010259         0.969194         1.509109
 H         2.237709        -1.326068         3.708106
 H         0.940808        -2.230842         2.773698
 H         2.575220        -1.968573        -0.311860
