19
Iteration:  3037charge 0 multiplicity 1
 C         2.765709         1.190913        -0.255096
 C         1.715304         0.154795        -0.000673
 C         0.594918        -0.387860        -0.846813
 C         0.471003        -1.334246         0.321684
 C         0.626849         0.035509         1.304518
 O         1.113859        -0.014926         2.603704
 C         1.620017        -1.332238         2.726309
 O         2.514035        -1.644101         1.656287
 C         1.996950        -1.274085         0.361609
 H         3.366858         1.428670         0.680207
 H         3.452416         0.764282        -1.011865
 H         2.295765         2.107346        -0.543006
 H        -0.281691         0.288830        -1.016230
 H         0.923848        -0.851781        -1.745129
 H        -0.279871        -2.163960         0.483866
 H        -0.113766         0.832704         1.202727
 H         2.343037        -1.418012         3.585053
 H         0.813441        -2.183522         2.847719
 H         2.379770        -1.873886        -0.483862
