19
Iteration:  3731
 C         2.632929         1.304467        -0.156724
 C         1.748440         0.094359         0.047906
 C         0.617239        -0.471002        -0.937784
 C         0.365231        -1.207620         0.394333
 C         0.703714         0.105617         1.169270
 O         1.150765         0.047158         2.510227
 C         1.694591        -1.386706         2.726187
 O         2.582166        -1.697286         1.697804
 C         1.946661        -1.468059         0.435706
 H         3.343447         1.367359         0.694062
 H         3.107042         1.263302        -1.142051
 H         1.875420         2.077419        -0.172753
 H        -0.106084         0.351532        -1.222310
 H         1.035980        -0.997016        -1.761766
 H        -0.334221        -2.016481         0.597201
 H         0.022666         1.017963         0.967042
 H         2.207909        -1.319347         3.692832
 H         0.732736        -1.865087         2.741985
 H         2.324105        -2.116316        -0.372595
