19
Iteration:  4128charge 0 multiplicity 1
 C         2.692652         1.120652        -0.135095
 C         1.724485         0.086047         0.103954
 C         0.659880        -0.377244        -0.926337
 C         0.424039        -1.275608         0.269390
 C         0.630543         0.046180         1.165673
 O         1.071778         0.068963         2.500268
 C         1.705031        -1.221356         2.718316
 O         2.524304        -1.700047         1.738820
 C         1.986396        -1.426523         0.454291
 H         3.492525         1.134521         0.575127
 H         3.055960         0.979457        -1.175172
 H         2.132604         2.073295        -0.208485
 H        -0.172484         0.314921        -1.015478
 H         0.978120        -0.678117        -1.974904
 H        -0.222630        -2.215218         0.384515
 H        -0.104436         0.909018         1.025330
 H         2.338154        -0.923670         3.640432
 H         0.908557        -1.961787         2.967023
 H         2.613803        -1.946053        -0.347695
