19
Iteration:   223
 C         2.813215         1.230783        -0.162297
 C         1.714673         0.173369         0.121038
 C         0.615572        -0.351125        -0.888806
 C         0.354568        -1.242103         0.246211
 C         0.599255        -0.004538         1.223468
 O         0.877335        -0.226437         2.611760
 C         2.136457        -0.839937         2.636289
 O         2.330286        -1.920448         1.695176
 C         1.934718        -1.443796         0.408203
 H         3.750828         1.194678         0.395100
 H         3.065563         0.888337        -1.149293
 H         2.431308         2.259602        -0.299249
 H        -0.242068         0.250985        -1.221521
 H         1.158771        -0.851872        -1.735278
 H        -0.450967        -2.092477         0.390165
 H        -0.186234         0.791114         1.230995
 H         2.890586        -0.017925         2.641846
 H         2.228141        -1.244855         3.597521
 H         2.424234        -2.101903        -0.269102
