19
Iteration:  2774
 C         2.766309         1.275294        -0.079320
 C         1.622781         0.151358        -0.003335
 C         0.591102        -0.418630        -0.929563
 C         0.397057        -1.359664         0.301903
 C         0.590444         0.051271         1.203170
 O         1.224856        -0.039506         2.521863
 C         1.695280        -1.218088         2.772266
 O         2.519572        -1.677123         1.640785
 C         1.938163        -1.368258         0.352939
 H         3.501721         1.020869         0.716239
 H         3.538554         1.398041        -0.895070
 H         2.446387         2.241890         0.266276
 H        -0.392308         0.226412        -1.022554
 H         1.013698        -0.940815        -1.795254
 H        -0.300753        -2.233630         0.570534
 H        -0.176437         0.733934         1.345792
 H         2.399423        -1.155819         3.633268
 H         0.896163        -2.023690         2.989569
 H         2.383044        -2.143025        -0.341863
