19
Iteration:  4657charge 0 multiplicity 1
 C         2.826300         1.154051        -0.192947
 C         1.718908         0.144480         0.147953
 C         0.538287        -0.489223        -0.909953
 C         0.376139        -1.315593         0.349855
 C         0.662070         0.128877         1.153113
 O         1.055214         0.022642         2.461491
 C         1.640386        -1.311234         2.687737
 O         2.612271        -1.607555         1.756655
 C         1.972814        -1.340637         0.409254
 H         3.248274         1.496210         0.749828
 H         3.607612         0.629623        -0.773901
 H         2.330786         1.981203        -0.771191
 H        -0.309474         0.256875        -1.218441
 H         0.898564        -1.041588        -1.789929
 H        -0.235325        -2.276355         0.401381
 H        -0.199710         0.863538         1.126506
 H         2.061991        -1.147427         3.762035
 H         0.988624        -2.076073         2.949129
 H         2.545509        -1.953852        -0.170578
