19
Iteration:  4265
 C         2.563624         1.334302        -0.133880
 C         1.758633         0.051646         0.096709
 C         0.793320        -0.504048        -1.008966
 C         0.338592        -1.298284         0.218526
 C         0.661428         0.124401         1.182471
 O         1.249138         0.136268         2.542086
 C         1.721775        -1.259380         2.782142
 O         2.461985        -1.797783         1.757545
 C         1.883484        -1.474084         0.450843
 H         3.199212         1.635244         0.739026
 H         3.262026         1.343680        -1.025350
 H         1.907686         2.106639        -0.547677
 H         0.133258         0.296280        -1.537710
 H         1.239675        -1.104598        -1.806997
 H        -0.597435        -1.848044         0.267063
 H        -0.065021         0.899286         1.165624
 H         2.184584        -1.314587         3.759250
 H         0.754289        -1.845896         2.744300
 H         2.393283        -2.265558        -0.104920
