19
Iteration:   128charge 0 multiplicity 1
 C         2.757879         1.171321        -0.230211
 C         1.724295         0.044438         0.117243
 C         0.594271        -0.317449        -0.900791
 C         0.297610        -1.263684         0.285316
 C         0.551913        -0.044203         1.185428
 O         0.992389        -0.054501         2.578633
 C         1.971806        -1.066572         2.822588
 O         2.533192        -1.779041         1.635950
 C         1.953652        -1.353869         0.390792
 H         3.535728         1.335774         0.513421
 H         3.282063         0.783766        -1.190545
 H         2.243235         2.104873        -0.443543
 H        -0.179906         0.440662        -1.212266
 H         1.033964        -0.837292        -1.724368
 H        -0.595524        -1.889763         0.323400
 H        -0.241383         0.705485         1.214939
 H         2.773090        -0.641256         3.419588
 H         1.432958        -1.783373         3.537014
 H         2.516623        -1.914557        -0.418366
