19
Iteration:   869charge 0 multiplicity 1
 C         2.803009         1.155476        -0.187498
 C         1.587237         0.172778         0.072915
 C         0.534383        -0.351131        -0.828282
 C         0.345509        -1.343157         0.419319
 C         0.496568        -0.020173         1.190827
 O         1.198666         0.040211         2.483940
 C         1.716279        -1.214639         2.680938
 O         2.683253        -1.629186         1.667608
 C         1.978215        -1.429550         0.382010
 H         3.403420         1.425904         0.722507
 H         3.438161         0.610943        -0.917781
 H         2.481965         2.134662        -0.565523
 H        -0.246458         0.410471        -1.002456
 H         0.907796        -0.729205        -1.745560
 H        -0.442317        -1.995911         0.571089
 H        -0.471431         0.544911         1.264200
 H         2.232133        -1.453046         3.668400
 H         0.930484        -1.983934         2.681291
 H         2.560783        -2.154867        -0.369657
