19
Iteration:  2143charge 0 multiplicity 1
 C         2.770803         1.190732        -0.290162
 C         1.762984         0.083963         0.103880
 C         0.663988        -0.249313        -0.890447
 C         0.341075        -1.224186         0.422480
 C         0.567042         0.024812         1.257235
 O         0.991138        -0.145811         2.568897
 C         1.810826        -1.335139         2.696900
 O         2.663448        -1.509288         1.631586
 C         1.844719        -1.452286         0.402991
 H         3.478100         1.622659         0.495965
 H         3.421150         0.654913        -0.989015
 H         2.000601         1.901294        -0.548722
 H        -0.224199         0.451349        -1.048503
 H         1.014944        -0.699204        -1.786332
 H        -0.380636        -2.052090         0.603290
 H        -0.201008         0.797990         1.059097
 H         2.391678        -1.339897         3.656073
 H         1.133711        -2.311765         2.888254
 H         2.191083        -1.987660        -0.474425
