19
Iteration:  1889charge 0 multiplicity 1
 C         2.709629         1.432343        -0.079024
 C         1.663340         0.087693         0.053742
 C         0.572376        -0.400970        -0.909637
 C         0.376588        -1.295764         0.371757
 C         0.686827         0.031479         1.162072
 O         1.165876        -0.019809         2.465639
 C         1.837132        -1.194405         2.747195
 O         2.509488        -1.830346         1.659429
 C         1.879550        -1.455216         0.376521
 H         3.258381         1.546925         0.881595
 H         3.389532         1.202063        -0.927976
 H         2.008352         2.265704        -0.209874
 H        -0.110932         0.422334        -1.125268
 H         0.872233        -0.990947        -1.735458
 H        -0.493362        -2.063340         0.458001
 H        -0.111063         0.811130         1.201854
 H         2.642599        -0.925258         3.526524
 H         1.103272        -2.016134         3.091034
 H         2.365505        -2.103626        -0.342999
