19
Iteration:   795
 C         2.604646         1.089839        -0.224998
 C         1.661525         0.070718         0.121773
 C         0.670840        -0.291257        -0.959238
 C         0.358476        -1.229206         0.452405
 C         0.584691         0.094169         1.186695
 O         1.114076        -0.003431         2.490621
 C         1.811157        -1.294752         2.747574
 O         2.608752        -1.671399         1.636705
 C         1.941507        -1.405508         0.428171
 H         3.548445         1.113136         0.443527
 H         2.927433         0.883777        -1.220884
 H         2.126851         2.087050        -0.074278
 H        -0.216460         0.352153        -1.064805
 H         1.058619        -0.822913        -1.895571
 H        -0.500532        -1.926795         0.760786
 H        -0.158698         0.945192         1.063751
 H         2.629320        -1.131026         3.574757
 H         1.244453        -2.177986         3.077671
 H         2.615115        -1.917208        -0.237924
