19
Iteration:  3063charge 0 multiplicity 1
 C         2.659294         1.334635        -0.205467
 C         1.728869         0.175605         0.036777
 C         0.601339        -0.414873        -0.878643
 C         0.375465        -1.224543         0.381797
 C         0.679183         0.071690         1.158083
 O         1.143219        -0.030304         2.476825
 C         1.668732        -1.324057         2.702522
 O         2.574592        -1.831108         1.696888
 C         1.990751        -1.402232         0.511615
 H         3.308167         1.599113         0.663318
 H         3.357014         1.042260        -0.983706
 H         2.128688         2.350376        -0.382658
 H        -0.155358         0.308674        -1.128220
 H         0.913895        -0.890820        -1.905680
 H        -0.508734        -1.700942         0.727214
 H        -0.071389         0.863843         1.189478
 H         2.316829        -1.250159         3.561296
 H         0.894338        -2.125524         2.838416
 H         2.327188        -2.001155        -0.344202
