19
Iteration:  4760
 C         2.654715         1.283994        -0.113386
 C         1.684357         0.124581         0.057434
 C         0.668557        -0.498873        -0.850184
 C         0.477520        -1.319215         0.358451
 C         0.654998         0.079685         1.151164
 O         1.146829         0.137426         2.412111
 C         1.633139        -1.253494         2.786314
 O         2.481482        -1.734918         1.695548
 C         1.977177        -1.494190         0.403492
 H         3.581918         1.140532         0.465792
 H         2.957512         1.110089        -1.135155
 H         2.462981         2.322423        -0.031592
 H        -0.002747         0.290953        -1.144354
 H         1.116380        -1.104096        -1.671853
 H        -0.296786        -2.075744         0.521327
 H        -0.129913         0.819851         1.124198
 H         2.262557        -1.181833         3.630418
 H         0.707979        -1.848432         2.666703
 H         2.713385        -1.967175        -0.173694
