19
Iteration:  2541charge 0 multiplicity 1
 C         2.640830         1.269495        -0.210602
 C         1.715341         0.104332         0.035451
 C         0.618300        -0.415857        -0.819927
 C         0.356690        -1.249226         0.445012
 C         0.742841         0.138683         1.202590
 O         1.049236        -0.031761         2.578269
 C         1.669892        -1.313680         2.656892
 O         2.585419        -1.720431         1.624757
 C         2.038980        -1.407592         0.390527
 H         3.287754         1.206297         0.668653
 H         3.434379         1.202650        -1.022156
 H         2.186550         2.324643        -0.166025
 H        -0.057222         0.361489        -1.260399
 H         0.916550        -1.099507        -1.741175
 H        -0.401230        -1.979081         0.702671
 H        -0.057123         0.910937         0.957662
 H         2.330903        -1.303153         3.585473
 H         0.858520        -2.034267         2.604669
 H         2.387280        -2.054741        -0.479098
