19
Iteration:   949charge 0 multiplicity 1
 C         2.613231         1.189895        -0.252609
 C         1.660114         0.100000         0.093185
 C         0.567038        -0.312966        -0.926677
 C         0.425703        -1.272730         0.342205
 C         0.611078        -0.038687         1.247946
 O         1.216214         0.009846         2.546490
 C         1.719800        -1.288143         2.801362
 O         2.558735        -1.669577         1.659762
 C         2.014125        -1.374376         0.396649
 H         3.400420         1.210865         0.531700
 H         3.090034         0.692036        -1.081906
 H         2.177543         2.178784        -0.552435
 H        -0.241801         0.370756        -1.133437
 H         0.861648        -0.854304        -1.859391
 H        -0.335126        -2.043852         0.540408
 H        -0.084250         0.829898         1.127195
 H         2.340080        -1.201053         3.694649
 H         0.850605        -1.872458         2.913624
 H         2.647283        -1.775463        -0.406577
