19
Iteration:  3720charge 0 multiplicity 1
 C         2.651432         1.270306        -0.227371
 C         1.755316         0.062082        -0.047880
 C         0.602997        -0.430307        -0.877942
 C         0.436539        -1.235519         0.393330
 C         0.703658         0.144840         1.194228
 O         1.087535         0.002032         2.573901
 C         1.685278        -1.314600         2.693823
 O         2.553364        -1.681053         1.687839
 C         1.944446        -1.446729         0.425723
 H         3.224965         1.345178         0.725782
 H         3.469350         1.340817        -0.960269
 H         2.231069         2.265761        -0.213653
 H        -0.238135         0.231326        -1.242545
 H         0.905214        -1.060017        -1.688017
 H        -0.354836        -1.932128         0.644536
 H        -0.172953         0.903921         1.282869
 H         2.234206        -1.486010         3.620237
 H         1.026138        -2.162753         2.640697
 H         2.500471        -2.165696        -0.151227
