19
Iteration:  3724
 C         2.641142         1.290440        -0.198113
 C         1.744235         0.055041        -0.015190
 C         0.597643        -0.452650        -0.877645
 C         0.417291        -1.200558         0.360501
 C         0.702906         0.141535         1.188694
 O         1.102855         0.038510         2.546905
 C         1.713843        -1.349905         2.690514
 O         2.562928        -1.691827         1.690730
 C         1.923569        -1.463095         0.436863
 H         3.244270         1.309231         0.748788
 H         3.340605         1.381427        -1.077742
 H         2.079960         2.227652        -0.217008
 H        -0.170999         0.295456        -1.266908
 H         1.056439        -1.046596        -1.707345
 H        -0.267234        -1.990113         0.706939
 H        -0.042916         0.920283         1.196810
 H         2.183729        -1.536439         3.682293
 H         0.886484        -2.110270         2.712669
 H         2.585305        -2.229521        -0.115351
