19
Iteration:  3755charge 0 multiplicity 1
 C         2.607893         1.305575        -0.147220
 C         1.693530         0.121160         0.066543
 C         0.672654        -0.404141        -0.873569
 C         0.386511        -1.241358         0.315663
 C         0.565687         0.030157         1.172643
 O         1.274497         0.045953         2.396124
 C         1.713178        -1.262173         2.746698
 O         2.510932        -1.785318         1.692992
 C         1.969379        -1.473853         0.516952
 H         3.425866         1.122368         0.591275
 H         2.982049         1.328574        -1.199367
 H         2.011538         2.154194         0.026039
 H        -0.046184         0.444654        -1.197644
 H         1.170566        -0.914330        -1.688257
 H        -0.318684        -2.036942         0.550033
 H        -0.294321         0.775765         1.188392
 H         2.255142        -1.137511         3.713363
 H         0.760701        -1.822002         2.803947
 H         2.620282        -1.977920        -0.294378
