19
Iteration:  2767charge 0 multiplicity 1
 C         2.731733         1.260882        -0.102541
 C         1.622485         0.214293         0.022105
 C         0.590016        -0.424309        -0.903266
 C         0.425917        -1.345741         0.307522
 C         0.617747         0.077403         1.162595
 O         1.227229         0.008355         2.496484
 C         1.732147        -1.296424         2.774058
 O         2.495186        -1.743259         1.676264
 C         1.919185        -1.369896         0.398016
 H         3.370167         0.940916         0.827055
 H         3.389216         1.540886        -0.877408
 H         2.433668         2.299713         0.187246
 H        -0.276309         0.119427        -1.171901
 H         0.847760        -0.834001        -1.917599
 H        -0.133240        -2.266810         0.448539
 H        -0.330459         0.749766         1.054556
 H         2.545115        -1.214033         3.568704
 H         0.912751        -1.949028         3.063738
 H         2.446316        -2.007458        -0.358084
