19
Iteration:  4411
 C         2.727723         1.225145        -0.188981
 C         1.722130         0.043287         0.045554
 C         0.674142        -0.414776        -0.913454
 C         0.401666        -1.337139         0.317890
 C         0.548156         0.024912         1.178420
 O         1.117773         0.130326         2.445443
 C         1.662699        -1.267870         2.766205
 O         2.504771        -1.745753         1.774529
 C         2.036925        -1.370640         0.453674
 H         3.366702         1.498619         0.691049
 H         3.460298         1.055639        -1.061377
 H         2.177727         2.181914        -0.388831
 H         0.053522         0.451609        -1.268214
 H         1.045958        -1.046602        -1.794206
 H        -0.384191        -2.051562         0.456384
 H        -0.182984         0.832676         1.226116
 H         2.219247        -1.106232         3.668604
 H         0.736921        -1.874084         2.711414
 H         2.697798        -1.917522        -0.175445
