19
Iteration:  2462
 C         2.827777         1.218007        -0.154640
 C         1.671495         0.138403         0.012682
 C         0.573259        -0.341022        -0.819918
 C         0.383229        -1.311535         0.414035
 C         0.585096         0.029077         1.239685
 O         1.035775        -0.054941         2.551798
 C         1.780479        -1.280378         2.692376
 O         2.568664        -1.598693         1.595982
 C         1.976269        -1.403648         0.362536
 H         3.350451         1.276396         0.840135
 H         3.574211         0.711458        -0.782459
 H         2.506860         2.122681        -0.681164
 H        -0.293417         0.324340        -0.939595
 H         0.754306        -0.903914        -1.837753
 H        -0.403173        -2.000780         0.531070
 H        -0.305240         0.681071         1.091437
 H         2.419974        -1.280965         3.566214
 H         1.044495        -2.087929         2.819999
 H         2.541986        -1.951022        -0.438488
