19
Iteration:  4626charge 0 multiplicity 1
 C         2.639601         1.267449        -0.172793
 C         1.759630         0.090967         0.010016
 C         0.724580        -0.440964        -1.050535
 C         0.407865        -1.262732         0.412210
 C         0.684666         0.116234         1.163767
 O         1.160056         0.055389         2.492797
 C         1.645866        -1.268975         2.766070
 O         2.515952        -1.693282         1.763418
 C         1.913786        -1.516725         0.435148
 H         2.975549         1.564634         0.776096
 H         3.403457         1.185822        -0.912425
 H         1.871393         1.979324        -0.256326
 H        -0.029456         0.339985        -1.351632
 H         1.117440        -1.013018        -1.813231
 H        -0.361752        -2.131964         0.639431
 H        -0.192333         0.813831         1.052601
 H         2.329932        -1.054927         3.670964
 H         0.780775        -2.058174         2.991684
 H         2.416936        -2.225542        -0.169852
