19
Iteration:  1128charge 0 multiplicity 1
 C         2.734928         1.295687        -0.248687
 C         1.723156         0.141640         0.054771
 C         0.549658        -0.495670        -0.816637
 C         0.379072        -1.251985         0.461269
 C         0.592733         0.034861         1.201805
 O         1.138979        -0.023286         2.506004
 C         1.735241        -1.319420         2.728879
 O         2.578556        -1.636165         1.582456
 C         1.932818        -1.387312         0.431300
 H         3.324314         1.457742         0.662141
 H         3.493081         1.010025        -1.047738
 H         2.312332         2.269644        -0.515082
 H        -0.084578         0.425287        -1.001509
 H         0.732070        -0.995016        -1.775212
 H        -0.272087        -2.183638         0.677347
 H        -0.180678         0.799991         1.155643
 H         2.467843        -1.257431         3.582044
 H         1.008828        -2.190055         2.910179
 H         2.381495        -1.982240        -0.322608
