19
Iteration:  2281charge 0 multiplicity 1
 C         2.658782         1.159615        -0.144886
 C         1.612661         0.118673         0.114064
 C         0.636444        -0.331333        -0.852873
 C         0.429018        -1.290962         0.363533
 C         0.608354         0.040407         1.145502
 O         1.094187         0.019268         2.546903
 C         1.825935        -1.281437         2.681692
 O         2.550514        -1.740288         1.608862
 C         1.979225        -1.329600         0.386386
 H         3.119121         1.434457         0.796010
 H         3.562619         0.720296        -0.681459
 H         2.099902         2.052193        -0.511066
 H        -0.160938         0.435101        -1.020863
 H         1.037202        -0.812014        -1.730241
 H        -0.387598        -2.115859         0.436819
 H        -0.241809         0.724812         1.173503
 H         2.459502        -1.131400         3.583721
 H         0.955424        -1.910963         2.939499
 H         2.670209        -1.870081        -0.307709
