19
Iteration:   977
 C         2.774478         1.231055        -0.189739
 C         1.638558         0.156779         0.035908
 C         0.473758        -0.436414        -0.823743
 C         0.435998        -1.367686         0.395550
 C         0.632874         0.084551         1.217901
 O         1.145542         0.019448         2.502738
 C         1.732848        -1.320382         2.672418
 O         2.607516        -1.604785         1.626856
 C         1.933857        -1.383897         0.447242
 H         3.435546         0.856974         0.616440
 H         3.342219         1.038120        -1.147230
 H         2.588979         2.289441        -0.114220
 H        -0.485345         0.140500        -0.970921
 H         0.862858        -0.860043        -1.738539
 H        -0.262893        -2.189503         0.596943
 H        -0.207874         0.796837         1.141552
 H         2.312637        -1.297533         3.638701
 H         0.813596        -2.013648         2.680464
 H         2.519764        -1.942243        -0.349766
