19
Iteration:  3205charge 0 multiplicity 1
 C         2.794109         1.201135        -0.246703
 C         1.700773         0.155126         0.082571
 C         0.544999        -0.337177        -0.911241
 C         0.448647        -1.233135         0.352390
 C         0.563128         0.116527         1.202096
 O         1.077734        -0.038456         2.555227
 C         1.699309        -1.379743         2.794323
 O         2.585282        -1.717205         1.636975
 C         1.995190        -1.336787         0.412454
 H         3.488106         1.202819         0.568413
 H         3.209608         0.738238        -1.157735
 H         2.189091         2.169800        -0.378074
 H        -0.309053         0.309691        -1.040026
 H         0.612885        -0.905864        -1.909527
 H        -0.138013        -2.139214         0.603973
 H        -0.208729         0.838502         1.249801
 H         2.443338        -1.249711         3.576954
 H         0.942382        -2.114048         2.922619
 H         2.644104        -1.972345        -0.246859
