19
Iteration:  3826charge 0 multiplicity 1
 C         2.796067         1.059941        -0.186472
 C         1.695471         0.059201         0.125771
 C         0.588005        -0.375415        -0.955316
 C         0.288869        -1.206275         0.341659
 C         0.563728         0.062475         1.184557
 O         1.015829        -0.073917         2.619759
 C         1.731384        -1.288147         2.695552
 O         2.740237        -1.499508         1.628163
 C         1.971638        -1.363983         0.429313
 H         3.218765         1.129847         0.783191
 H         3.500013         0.612012        -0.875898
 H         2.241559         1.966428        -0.570955
 H        -0.085408         0.402198        -1.205641
 H         1.032352        -1.026008        -1.771080
 H        -0.667124        -1.795107         0.331316
 H        -0.197855         0.821830         1.170460
 H         2.286782        -1.079693         3.616494
 H         1.012781        -2.085543         2.625031
 H         2.377435        -2.122985        -0.192217
