19
Iteration:  3487charge 0 multiplicity 1
 C         2.917671         1.104144        -0.199535
 C         1.674096         0.156152        -0.000396
 C         0.522947        -0.363182        -0.814475
 C         0.427374        -1.302152         0.464211
 C         0.521314         0.046632         1.266749
 O         1.022068        -0.055767         2.509522
 C         1.771789        -1.351246         2.735355
 O         2.605381        -1.569651         1.592247
 C         1.974214        -1.270492         0.379976
 H         3.410312         1.295048         0.768610
 H         3.649110         0.526622        -0.745886
 H         2.678354         2.169996        -0.683026
 H        -0.332669         0.262249        -1.075610
 H         0.582213        -0.919547        -1.885387
 H        -0.302334        -2.186906         0.413890
 H        -0.466465         0.728846         1.154326
 H         2.311324        -1.189452         3.725397
 H         0.888730        -2.131499         2.782384
 H         2.266009        -1.765762        -0.569368
