19
Iteration:  3980
 C         2.740087         1.069466        -0.122307
 C         1.688921         0.129195         0.005158
 C         0.582831        -0.355305        -0.928912
 C         0.405577        -1.268424         0.306488
 C         0.616099         0.060086         1.151320
 O         1.021822        -0.038640         2.553248
 C         1.728187        -1.306686         2.724918
 O         2.623416        -1.483072         1.708845
 C         1.987843        -1.442585         0.427077
 H         3.484256         0.847325         0.679970
 H         3.214708         0.887462        -1.073789
 H         2.446078         2.163856        -0.103204
 H        -0.235801         0.400502        -1.215000
 H         0.950525        -0.947470        -1.834084
 H        -0.381112        -2.014692         0.574514
 H        -0.235989         0.750044         1.069769
 H         2.364785        -1.248575         3.635550
 H         0.978949        -2.048836         3.104831
 H         2.529116        -2.048097        -0.302893
