19
Iteration:  1906charge 0 multiplicity 1
 C         2.535207         1.188186        -0.087248
 C         1.658339         0.117726         0.104799
 C         0.625095        -0.321815        -0.945030
 C         0.422055        -1.279361         0.271092
 C         0.577688         0.046014         1.182206
 O         1.282059         0.074912         2.486709
 C         1.823664        -1.239399         2.792045
 O         2.473948        -1.822696         1.645433
 C         1.970401        -1.424774         0.417035
 H         3.248536         1.294240         0.728674
 H         3.267929         1.115547        -0.861280
 H         2.064639         2.190409        -0.190093
 H        -0.327750         0.286730        -0.985916
 H         1.112670        -0.615088        -1.954477
 H        -0.249455        -2.062965         0.311788
 H        -0.300659         0.700828         1.303202
 H         2.626958        -1.101269         3.459454
 H         1.034484        -1.870087         3.105944
 H         2.513540        -2.001457        -0.358409
