19
Iteration:   707charge 0 multiplicity 1
 C         2.682164         1.146947        -0.194377
 C         1.647941         0.115521         0.016715
 C         0.571127        -0.398736        -0.940964
 C         0.339822        -1.205606         0.324673
 C         0.609952         0.107946         1.195128
 O         1.134718        -0.064573         2.630854
 C         1.888256        -1.235293         2.793960
 O         2.603176        -1.687308         1.636686
 C         1.897494        -1.394241         0.366680
 H         3.209144         1.540166         0.709356
 H         3.414378         0.649223        -0.817509
 H         2.284468         2.016671        -0.720822
 H        -0.317377         0.240503        -1.181731
 H         1.001937        -1.040254        -1.734587
 H        -0.345803        -2.077277         0.534111
 H        -0.085614         0.989831         1.243358
 H         2.428725        -1.014382         3.783171
 H         1.126288        -1.950479         3.103656
 H         2.272608        -1.947379        -0.446827
