19
Iteration:  2590
 C         2.658284         1.193115        -0.041223
 C         1.605890         0.128331         0.052809
 C         0.646249        -0.357099        -0.985254
 C         0.406466        -1.295906         0.295716
 C         0.602395         0.006575         1.188624
 O         1.250079         0.038091         2.512041
 C         1.752239        -1.201856         2.824633
 O         2.541710        -1.762947         1.661990
 C         1.913457        -1.395168         0.354817
 H         3.547074         1.133396         0.680638
 H         3.025400         1.367396        -1.046833
 H         2.153383         2.120559         0.259244
 H        -0.235464         0.225955        -1.244144
 H         1.097422        -0.827876        -1.811054
 H        -0.319586        -2.152653         0.370479
 H        -0.191059         0.689542         1.010447
 H         2.432504        -1.093376         3.646713
 H         0.926033        -1.885328         3.080953
 H         2.314508        -1.902334        -0.518879
