19
Iteration:  3888charge 0 multiplicity 1
 C         2.619808         1.166735        -0.219276
 C         1.750659         0.077775         0.091189
 C         0.656651        -0.291920        -0.896425
 C         0.432736        -1.328498         0.364672
 C         0.631747         0.090978         1.193954
 O         1.137670        -0.018719         2.507258
 C         1.654077        -1.285127         2.712498
 O         2.569874        -1.651097         1.698623
 C         1.952294        -1.402624         0.449245
 H         3.132143         1.522060         0.682900
 H         3.458939         0.949535        -0.899259
 H         2.137211         2.021337        -0.657825
 H        -0.057637         0.478446        -1.192785
 H         1.036641        -0.833513        -1.812969
 H        -0.303841        -2.098093         0.567493
 H        -0.170621         0.772233         1.040457
 H         2.199529        -1.158241         3.649386
 H         1.001244        -2.177591         2.836007
 H         2.307444        -2.070737        -0.359754
