19
Iteration:  4408charge 0 multiplicity 1
 C         2.726317         1.226829        -0.186381
 C         1.734368         0.059990         0.064684
 C         0.670916        -0.398618        -0.920302
 C         0.416638        -1.340507         0.325252
 C         0.587707         0.012617         1.178070
 O         1.087887         0.121556         2.453035
 C         1.670200        -1.245488         2.778063
 O         2.505299        -1.735579         1.762463
 C         2.006049        -1.392412         0.450957
 H         3.423663         1.417963         0.668487
 H         3.453088         0.979724        -1.088733
 H         2.247781         2.218185        -0.483260
 H        -0.055601         0.452491        -1.312420
 H         1.018396        -0.972612        -1.763745
 H        -0.415951        -2.116648         0.420154
 H        -0.241445         0.735360         1.157872
 H         2.215059        -1.094058         3.778741
 H         0.804092        -1.860754         2.677765
 H         2.746138        -1.989741        -0.288162
