19
Iteration:  3706
 C         2.804797         1.226273        -0.230708
 C         1.726579         0.143877        -0.023410
 C         0.550759        -0.426516        -0.890481
 C         0.434066        -1.228132         0.458948
 C         0.643156         0.036793         1.197155
 O         1.050107        -0.064624         2.580631
 C         1.650090        -1.325014         2.755972
 O         2.597030        -1.611820         1.640029
 C         1.992334        -1.371477         0.381970
 H         3.232487         1.347668         0.737324
 H         3.458801         0.888912        -1.035856
 H         2.202064         2.121992        -0.686708
 H        -0.198589         0.291008        -0.975600
 H         0.796022        -0.982268        -1.837360
 H        -0.323431        -2.056151         0.605718
 H        -0.103208         0.847450         1.106945
 H         2.212451        -1.249399         3.687456
 H         0.772146        -2.017644         2.939637
 H         2.414163        -2.020369        -0.369479
