19
Iteration:  3824
 C         2.787698         1.062431        -0.189678
 C         1.681304         0.069194         0.150403
 C         0.577932        -0.366981        -0.961642
 C         0.302185        -1.205303         0.346280
 C         0.563400         0.071227         1.164161
 O         1.011778        -0.075557         2.606449
 C         1.721464        -1.257924         2.705460
 O         2.752635        -1.509953         1.619363
 C         1.962118        -1.405227         0.451645
 H         3.234871         1.148140         0.760544
 H         3.534357         0.723967        -0.911117
 H         2.295258         1.963053        -0.529663
 H        -0.059120         0.425600        -1.173911
 H         1.076941        -0.998259        -1.795103
 H        -0.607142        -1.833685         0.324132
 H        -0.145076         0.803276         1.205781
 H         2.326642        -1.173916         3.621490
 H         1.045579        -2.119327         2.635592
 H         2.349933        -2.157851        -0.252189
