19
Iteration:   272
 C         2.730620         1.237818        -0.206876
 C         1.714652         0.062159         0.163691
 C         0.654236        -0.336673        -0.901512
 C         0.315747        -1.313570         0.270182
 C         0.605832         0.123003         1.185408
 O         0.960074        -0.062479         2.541188
 C         2.060116        -1.066135         2.766738
 O         2.554550        -1.794723         1.618282
 C         1.767123        -1.531793         0.425331
 H         3.435418         1.350565         0.642810
 H         3.412388         0.963969        -1.095537
 H         2.193238         2.179993        -0.342743
 H        -0.218929         0.341485        -0.999870
 H         1.088075        -0.753852        -1.801115
 H        -0.417060        -1.951802         0.518511
 H        -0.106641         0.921057         1.033006
 H         2.694844        -0.485492         3.391462
 H         1.507425        -1.843968         3.491082
 H         2.422947        -2.099593        -0.331918
