19
Iteration:  1987
 C         2.810575         1.144905        -0.283247
 C         1.672464         0.074650         0.096001
 C         0.597480        -0.250761        -0.920062
 C         0.375706        -1.260542         0.364377
 C         0.590721         0.021737         1.198709
 O         1.061586        -0.152919         2.612520
 C         1.792818        -1.370348         2.703279
 O         2.632693        -1.453785         1.651680
 C         1.873915        -1.359187         0.443240
 H         3.492772         1.381074         0.521086
 H         3.203616         0.723681        -1.229111
 H         2.389376         2.089355        -0.603423
 H        -0.214747         0.487489        -1.043832
 H         0.773935        -0.817648        -1.829307
 H        -0.460700        -2.048584         0.622497
 H        -0.173234         0.809191         1.375355
 H         2.300129        -1.596862         3.683166
 H         1.080436        -2.235334         2.766289
 H         2.372879        -2.068613        -0.219928
