19
Iteration:   652
 C         2.649907         1.090381        -0.162867
 C         1.674487         0.050630         0.024753
 C         0.594433        -0.329973        -0.887645
 C         0.325231        -1.287229         0.287045
 C         0.639166         0.050622         1.202390
 O         1.074354         0.024626         2.598155
 C         1.952240        -1.128007         2.744909
 O         2.549456        -1.692233         1.638953
 C         1.915832        -1.452252         0.395584
 H         3.338664         1.025180         0.702451
 H         3.264116         1.050835        -1.056026
 H         2.179592         2.058304        -0.111981
 H        -0.086834         0.492077        -1.233381
 H         0.997002        -0.703518        -1.831593
 H        -0.493310        -1.977096         0.636120
 H        -0.271533         0.685202         1.127248
 H         2.803756        -0.951795         3.508465
 H         1.291273        -1.977979         3.080039
 H         2.412059        -1.935870        -0.370822
