19
Iteration:  4791charge 0 multiplicity 1
 C         2.634189         1.259143        -0.150694
 C         1.779817         0.087424        -0.044561
 C         0.648555        -0.495049        -0.978830
 C         0.397373        -1.211039         0.312883
 C         0.626807         0.096674         1.133553
 O         1.187502         0.035734         2.461608
 C         1.640165        -1.289569         2.856471
 O         2.547471        -1.696173         1.763472
 C         1.961864        -1.449066         0.504932
 H         3.445551         1.342793         0.589785
 H         3.165598         1.220345        -1.120020
 H         2.093021         2.226240        -0.157931
 H        -0.012818         0.442110        -1.227073
 H         0.805046        -1.069888        -1.914757
 H        -0.353028        -2.043098         0.460643
 H        -0.100187         0.916320         1.103111
 H         2.114740        -1.288976         3.884150
 H         0.780598        -2.103834         2.841941
 H         2.476788        -2.042241        -0.170928
