19
Iteration:   100charge 0 multiplicity 1
 C         2.689002         1.230882        -0.326552
 C         1.700131         0.128219         0.003591
 C         0.551843        -0.354482        -0.888694
 C         0.439720        -1.265738         0.378568
 C         0.697185         0.080080         1.139185
 O         1.091376        -0.085238         2.579769
 C         1.748766        -1.292103         2.846701
 O         2.569040        -1.659304         1.676248
 C         1.945614        -1.413883         0.442348
 H         3.380091         1.337604         0.525217
 H         3.243138         0.863833        -1.145604
 H         2.250571         2.192902        -0.629013
 H        -0.311582         0.274798        -1.032979
 H         0.929022        -0.760368        -1.861953
 H        -0.437027        -1.871889         0.594925
 H        -0.205552         0.681610         1.295962
 H         2.403073        -1.107831         3.727672
 H         0.955199        -1.963092         3.071837
 H         2.396981        -2.076675        -0.288197
