19
Iteration:   881charge 0 multiplicity 1
 C         2.711004         1.154263        -0.201535
 C         1.691948         0.127452         0.102997
 C         0.559251        -0.352114        -0.907848
 C         0.402885        -1.278028         0.399742
 C         0.569275         0.027665         1.219813
 O         1.187374        -0.009135         2.461473
 C         1.770803        -1.347149         2.700989
 O         2.609765        -1.575755         1.650609
 C         1.883230        -1.381796         0.493010
 H         3.292913         1.427952         0.749704
 H         3.436587         0.730267        -0.894123
 H         2.276882         2.016119        -0.757211
 H        -0.212706         0.399372        -1.107813
 H         0.825994        -0.911633        -1.809403
 H        -0.129861        -2.156882         0.560299
 H        -0.343356         0.718919         1.227671
 H         2.357139        -1.047713         3.631645
 H         0.929464        -2.050625         2.761513
 H         2.191564        -2.150581        -0.346146
