19
Iteration:  1667charge 0 multiplicity 1
 C         2.807097         1.247759        -0.201254
 C         1.746278         0.075483         0.031928
 C         0.565479        -0.358341        -0.917311
 C         0.247548        -1.214680         0.359678
 C         0.558633         0.103811         1.253419
 O         1.028355        -0.141719         2.615725
 C         1.845627        -1.326751         2.745509
 O         2.693074        -1.566152         1.600042
 C         1.884871        -1.416876         0.393107
 H         3.347824         1.594719         0.704533
 H         3.373555         0.833129        -0.999056
 H         2.128149         1.996550        -0.804162
 H         0.053900         0.280805        -1.576298
 H         0.970242        -1.176116        -1.504067
 H        -0.654844        -1.955113         0.687593
 H        -0.114271         0.973416         1.293262
 H         2.486983        -1.176707         3.603519
 H         1.200269        -2.160042         2.938379
 H         2.234570        -2.191212        -0.280191
