19
Iteration:  3119
 C         2.767707         1.179493        -0.108345
 C         1.706093         0.160649         0.093180
 C         0.499534        -0.410018        -0.840992
 C         0.432214        -1.302406         0.337900
 C         0.602982         0.101385         1.187947
 O         1.152964         0.008640         2.427644
 C         1.709908        -1.304731         2.704776
 O         2.545463        -1.735389         1.629683
 C         1.954003        -1.332629         0.429514
 H         3.330701         1.198924         0.816142
 H         3.546016         1.178660        -0.911368
 H         2.415342         2.269888        -0.188414
 H        -0.237354         0.390576        -1.091884
 H         0.923577        -0.940379        -1.775544
 H        -0.119757        -2.187483         0.657225
 H        -0.293057         0.671639         1.292604
 H         2.361024        -1.075922         3.549275
 H         0.853275        -2.050665         2.980991
 H         2.410234        -1.913769        -0.405732
