19
Iteration:    83charge 0 multiplicity 1
 C         2.701853         1.217639        -0.309320
 C         1.734580         0.062266         0.052250
 C         0.518576        -0.500384        -0.850143
 C         0.319653        -1.174684         0.456531
 C         0.639533         0.131521         1.269780
 O         1.130493        -0.005502         2.535439
 C         1.643285        -1.351138         2.620257
 O         2.648189        -1.671005         1.711939
 C         2.085231        -1.317263         0.405018
 H         3.356204         1.539428         0.528050
 H         3.374525         0.988421        -1.218791
 H         2.033513         2.091894        -0.517662
 H        -0.150143         0.352014        -1.159388
 H         0.702183        -1.248051        -1.630753
 H        -0.398300        -2.091996         0.698171
 H        -0.001492         1.041019         1.166194
 H         1.975025        -1.533770         3.694127
 H         0.763455        -2.157662         2.603280
 H         2.615393        -1.953908        -0.354803
