19
Iteration:  3006
 C         2.825734         1.082989        -0.202327
 C         1.695859         0.090158         0.031683
 C         0.580622        -0.298767        -0.875504
 C         0.379596        -1.211360         0.361190
 C         0.517045         0.076312         1.264008
 O         0.983531        -0.117644         2.502993
 C         1.713178        -1.377413         2.698648
 O         2.774531        -1.514960         1.713592
 C         1.929517        -1.320668         0.393158
 H         3.483007         1.116219         0.741124
 H         3.345224         0.787049        -1.090689
 H         2.266750         1.934950        -0.610015
 H        -0.263053         0.374924        -1.016959
 H         0.853497        -0.904633        -1.792803
 H        -0.345385        -2.046851         0.468534
 H        -0.086878         0.890624         1.171594
 H         2.239560        -1.134484         3.671780
 H         0.958885        -2.228278         2.774842
 H         2.159872        -2.140790        -0.335762
