19
Iteration:  1769
 C         2.691285         1.336121        -0.218480
 C         1.776034         0.086930         0.087719
 C         0.652530        -0.428096        -0.916422
 C         0.175812        -1.185938         0.402511
 C         0.586717         0.087397         1.159941
 O         1.124777        -0.085248         2.572233
 C         1.801688        -1.340916         2.726843
 O         2.657673        -1.635064         1.635168
 C         1.863689        -1.494815         0.479329
 H         3.494838         1.387704         0.542878
 H         3.200209         1.222124        -1.240435
 H         1.963909         2.162605        -0.153221
 H         0.068385         0.412508        -1.314535
 H         1.232534        -0.916461        -1.698094
 H        -0.626509        -1.985505         0.332188
 H         0.027864         1.058370         1.041110
 H         2.599247        -1.321183         3.529221
 H         1.097197        -2.098199         2.811261
 H         2.284377        -2.112567        -0.325716
