19
Iteration:   605charge 0 multiplicity 1
 C         2.705705         1.117167        -0.113513
 C         1.652248         0.075082        -0.026752
 C         0.537901        -0.471999        -0.913721
 C         0.414714        -1.265386         0.555557
 C         0.602622         0.074613         1.216810
 O         1.154873         0.069674         2.550357
 C         1.681592        -1.278805         2.664200
 O         2.626911        -1.647093         1.604234
 C         2.030218        -1.310347         0.366306
 H         3.459957         0.959388         0.617623
 H         3.261719         1.141056        -1.111768
 H         2.330592         2.134906         0.049864
 H        -0.325114         0.193728        -1.082813
 H         0.610976        -1.029655        -1.793172
 H        -0.203043        -2.038157         0.706064
 H        -0.083430         0.891502         1.007049
 H         2.210195        -1.365040         3.574856
 H         0.827614        -1.990448         2.579855
 H         2.342707        -1.921876        -0.511667
