19
Iteration:   270charge 0 multiplicity 1
 C         2.739832         1.254463        -0.210736
 C         1.715831         0.071994         0.172392
 C         0.638285        -0.344303        -0.904540
 C         0.309965        -1.289056         0.275581
 C         0.625696         0.109439         1.188521
 O         0.954123        -0.079793         2.530752
 C         2.048293        -1.076630         2.769271
 O         2.553053        -1.798759         1.631977
 C         1.788945        -1.536095         0.422782
 H         3.431074         1.344481         0.581281
 H         3.411688         1.043790        -1.126985
 H         2.202787         2.152421        -0.352958
 H        -0.247822         0.360122        -1.088916
 H         1.022328        -0.775833        -1.767405
 H        -0.522887        -1.947410         0.469997
 H        -0.046785         0.877534         1.013579
 H         2.668895        -0.439188         3.358214
 H         1.607894        -1.724222         3.545146
 H         2.382067        -2.109203        -0.300856
