19
Iteration:  2420
 C         2.609356         1.284084        -0.015611
 C         1.714034         0.157729         0.054035
 C         0.657081        -0.480326        -0.907516
 C         0.319620        -1.225107         0.402745
 C         0.621669         0.034916         1.154060
 O         1.243984         0.041792         2.466203
 C         1.748686        -1.282507         2.668609
 O         2.583327        -1.708761         1.605814
 C         1.894905        -1.492507         0.448752
 H         3.325932         1.211806         0.798269
 H         3.344659         1.459190        -0.794890
 H         2.055023         2.259267         0.119391
 H        -0.116093         0.189886        -1.241719
 H         1.034072        -1.043832        -1.833588
 H        -0.572043        -1.815898         0.526534
 H        -0.155904         0.870193         1.138009
 H         2.421265        -1.193296         3.548035
 H         0.932480        -1.994480         2.809492
 H         2.150897        -2.212760        -0.392444
