19
Iteration:   280charge 0 multiplicity 1
 C         2.704801         1.148844        -0.147901
 C         1.706425         0.064273         0.096737
 C         0.688411        -0.338452        -0.895514
 C         0.333271        -1.334068         0.292725
 C         0.549682         0.117944         1.182453
 O         0.994028        -0.008177         2.559540
 C         2.019709        -1.073118         2.773363
 O         2.541854        -1.762890         1.598082
 C         1.826360        -1.480610         0.425083
 H         3.316630         1.362777         0.679477
 H         3.323811         0.795223        -1.018246
 H         2.226914         2.067359        -0.386203
 H        -0.133284         0.445081        -1.010240
 H         1.078474        -0.646921        -1.824482
 H        -0.400472        -2.158297         0.524805
 H        -0.191568         0.875695         1.210176
 H         2.923292        -0.740875         3.303483
 H         1.505394        -1.863551         3.153325
 H         2.259429        -2.047310        -0.382884
