19
Iteration:  4364charge 0 multiplicity 1
 C         2.910570         1.044877        -0.220674
 C         1.750989         0.127030         0.021696
 C         0.644211        -0.458685        -0.945828
 C         0.282544        -1.145728         0.331234
 C         0.603094        -0.018811         1.115319
 O         0.868403        -0.123804         2.590914
 C         1.686309        -1.221453         2.760666
 O         2.730784        -1.492037         1.766470
 C         1.888462        -1.319610         0.426340
 H         3.594528         1.177981         0.659628
 H         3.543451         0.619274        -1.147265
 H         2.513185         2.122368        -0.359541
 H        -0.126026         0.407031        -1.305798
 H         0.897376        -1.136955        -1.731981
 H        -0.404888        -2.013084         0.563515
 H        -0.155036         0.724272         1.163790
 H         2.384149        -0.985762         3.602615
 H         0.974472        -2.041871         2.773929
 H         2.427082        -2.089859        -0.302233
