19
Iteration:  2652charge 0 multiplicity 1
 C         2.769538         1.040681        -0.204627
 C         1.668065         0.138509         0.057072
 C         0.619948        -0.335780        -0.885313
 C         0.318915        -1.278021         0.306544
 C         0.590659        -0.017278         1.218200
 O         1.023133        -0.044412         2.620379
 C         1.775475        -1.338499         2.722021
 O         2.626071        -1.526095         1.664144
 C         1.974478        -1.272027         0.353629
 H         3.205793         1.180650         0.718841
 H         3.565109         0.626557        -0.893700
 H         2.482582         2.020878        -0.582713
 H        -0.203640         0.474782        -0.953430
 H         0.808804        -0.729067        -1.880188
 H        -0.474375        -2.045389         0.221398
 H        -0.028588         0.754685         1.377370
 H         2.418018        -1.280164         3.580033
 H         1.037787        -2.199565         2.795180
 H         2.627950        -1.905034        -0.248269
