19
Iteration:  1735
 C         2.686750         1.288720        -0.097341
 C         1.652841         0.133137         0.008698
 C         0.492900        -0.397300        -0.856416
 C         0.425762        -1.368793         0.376050
 C         0.645647         0.079890         1.129604
 O         1.273228         0.070205         2.487852
 C         1.711202        -1.298317         2.745821
 O         2.464344        -1.792870         1.646817
 C         2.022989        -1.360168         0.390716
 H         3.310209         1.265215         0.797501
 H         3.308958         1.265019        -1.021840
 H         2.206521         2.339860        -0.108983
 H        -0.341482         0.234346        -1.002166
 H         0.858425        -0.757598        -1.814988
 H        -0.078839        -2.403869         0.502771
 H        -0.203412         0.745633         1.229039
 H         2.359150        -1.237725         3.669363
 H         0.894596        -1.901639         2.992694
 H         2.663841        -1.898953        -0.274566
