19
Iteration:   567
 C         2.708366         1.243028        -0.322399
 C         1.697388         0.083735        -0.007218
 C         0.534402        -0.346836        -0.930491
 C         0.356260        -1.238316         0.360922
 C         0.584276         0.027969         1.227793
 O         1.108413        -0.004001         2.542843
 C         1.743839        -1.351166         2.822441
 O         2.665862        -1.709627         1.692884
 C         1.967472        -1.354010         0.486558
 H         3.458913         1.469060         0.504779
 H         3.234491         0.861351        -1.176389
 H         2.158058         2.154455        -0.646434
 H        -0.071970         0.558353        -0.995349
 H         0.830841        -0.789730        -1.941690
 H        -0.429741        -2.127360         0.473952
 H        -0.146481         0.851045         1.347976
 H         2.390551        -1.184875         3.738926
 H         1.012037        -2.108581         3.006173
 H         2.507853        -2.024755        -0.237947
