19
Iteration:  2412
 C         2.695879         1.349507        -0.003286
 C         1.699184         0.065736         0.077620
 C         0.603391        -0.455611        -0.881945
 C         0.440883        -1.222599         0.402573
 C         0.609880         0.056147         1.151519
 O         1.226605         0.042785         2.482000
 C         1.725215        -1.184052         2.685380
 O         2.533677        -1.783117         1.569169
 C         1.911808        -1.462261         0.397456
 H         3.301446         1.223443         0.869771
 H         3.067237         1.337072        -1.086652
 H         1.944785         2.182608         0.099934
 H        -0.227029         0.169470        -1.205444
 H         1.034608        -1.048931        -1.628285
 H        -0.379749        -2.028161         0.659691
 H        -0.334845         0.665084         1.014986
 H         2.394142        -1.309530         3.619066
 H         0.932690        -1.973886         2.842570
 H         2.310466        -2.116954        -0.466529
