19
Iteration:  2762
 C         2.703874         1.265097        -0.066003
 C         1.656646         0.232537         0.032633
 C         0.566069        -0.431243        -0.917203
 C         0.462968        -1.303692         0.328905
 C         0.619890         0.077549         1.141639
 O         1.205703         0.061423         2.466023
 C         1.783703        -1.345237         2.766551
 O         2.478907        -1.793282         1.683865
 C         1.929946        -1.381538         0.439750
 H         3.303615         0.960046         0.767211
 H         3.209519         1.342181        -1.113211
 H         2.258736         2.240904         0.138797
 H        -0.349553         0.245520        -1.240346
 H         0.880734        -0.828317        -1.880353
 H        -0.178577        -2.235527         0.366041
 H        -0.222942         0.688831         1.037815
 H         2.475939        -1.227683         3.593709
 H         0.887798        -1.984520         3.081049
 H         2.540457        -1.837822        -0.370716
