19
Iteration:   131
 C         2.749532         1.149634        -0.199041
 C         1.704479         0.068993         0.113859
 C         0.596067        -0.343637        -0.894707
 C         0.293508        -1.260976         0.279971
 C         0.575618        -0.012773         1.179121
 O         0.975386        -0.067175         2.574343
 C         1.969647        -1.016887         2.822236
 O         2.543723        -1.800548         1.626683
 C         1.955730        -1.359332         0.388376
 H         3.559778         1.323276         0.510367
 H         3.247346         0.765725        -1.091200
 H         2.271785         2.090629        -0.400238
 H        -0.134017         0.434798        -1.165594
 H         1.059081        -0.859741        -1.749101
 H        -0.567764        -1.774100         0.416163
 H        -0.329558         0.647109         1.107725
 H         2.861093        -0.704028         3.328896
 H         1.541403        -1.851000         3.530043
 H         2.476012        -1.881653        -0.484368
