19
Iteration:  4058
 C         2.701967         1.241752        -0.215191
 C         1.785294         0.107338         0.050718
 C         0.628941        -0.362621        -0.946446
 C         0.442803        -1.325699         0.364808
 C         0.574023         0.053287         1.218553
 O         1.091332         0.044731         2.496540
 C         1.676202        -1.286699         2.724574
 O         2.579676        -1.707712         1.743512
 C         1.989808        -1.424664         0.451569
 H         3.114738         1.518995         0.790885
 H         3.581188         0.932431        -0.782427
 H         2.253488         2.084598        -0.712437
 H        -0.296515         0.359730        -1.098437
 H         0.775033        -0.834289        -1.889427
 H        -0.392682        -1.940156         0.436126
 H        -0.200246         0.775384         1.114116
 H         2.216368        -1.304266         3.642935
 H         0.723062        -1.866515         2.599562
 H         2.342258        -2.135563        -0.226379
