19
Iteration:   243
 C         2.702958         1.183724        -0.229816
 C         1.763419         0.063321        -0.038008
 C         0.647162        -0.355927        -0.953795
 C         0.407581        -1.177126         0.360977
 C         0.598134         0.114646         1.188519
 O         0.903257        -0.279118         2.588186
 C         2.134271        -0.977097         2.796016
 O         2.333979        -1.858728         1.672171
 C         1.933500        -1.347442         0.430052
 H         3.441677         1.024246         0.618540
 H         3.272673         1.260040        -1.116605
 H         2.166062         2.180958        -0.184194
 H        -0.079541         0.410552        -1.170710
 H         0.779112        -0.929426        -1.951975
 H        -0.328642        -1.981963         0.791907
 H        -0.218097         0.939078         1.123051
 H         2.894666        -0.214235         3.166850
 H         1.997201        -1.564712         3.723201
 H         2.453715        -1.971265        -0.320099
