19
Iteration:  1327
 C         2.700711         1.145274        -0.206392
 C         1.607114         0.149426         0.058997
 C         0.529388        -0.357087        -0.944360
 C         0.390799        -1.325447         0.337144
 C         0.568036         0.002221         1.266887
 O         1.173686        -0.023929         2.562012
 C         1.742041        -1.281488         2.743934
 O         2.638311        -1.564601         1.657411
 C         1.978998        -1.350678         0.395324
 H         3.344049         1.360893         0.706672
 H         3.404630         0.527003        -0.812902
 H         2.515294         2.083051        -0.731244
 H        -0.321815         0.388728        -1.073305
 H         0.944299        -0.793765        -1.873622
 H        -0.207266        -2.306655         0.605978
 H        -0.304597         0.637482         1.264672
 H         2.329075        -1.385009         3.685746
 H         0.994634        -2.084162         2.775782
 H         2.540173        -1.775036        -0.380936
