19
Iteration:  4133
 C         2.754769         1.131000        -0.150372
 C         1.749117         0.059409         0.068916
 C         0.632686        -0.394688        -0.905559
 C         0.404665        -1.296999         0.303407
 C         0.608270         0.061350         1.189506
 O         1.046189         0.027923         2.488731
 C         1.715316        -1.186150         2.757538
 O         2.504182        -1.677566         1.706582
 C         1.990773        -1.408629         0.441854
 H         3.621334         1.260116         0.572944
 H         3.167924         0.976013        -1.143065
 H         2.159283         2.066743        -0.095889
 H        -0.073889         0.465187        -1.121584
 H         0.878805        -0.709462        -1.897310
 H        -0.097891        -2.226243         0.309133
 H        -0.198935         0.764184         1.154229
 H         2.337784        -0.958201         3.545219
 H         0.915787        -1.932738         2.841497
 H         2.647441        -1.881272        -0.256196
