19
Iteration:  3243
 C         2.609340         1.293017        -0.135370
 C         1.724920         0.075763         0.091288
 C         0.601169        -0.417889        -0.953177
 C         0.419792        -1.242683         0.351869
 C         0.603738         0.137848         1.159466
 O         1.283117         0.035889         2.524344
 C         1.647633        -1.377251         2.717404
 O         2.558755        -1.749722         1.677488
 C         1.951169        -1.437146         0.448066
 H         3.438588         1.562918         0.593288
 H         3.181351         1.281762        -1.104495
 H         2.088588         2.213063        -0.230349
 H        -0.104437         0.479301        -1.116996
 H         0.960494        -0.967108        -1.795162
 H        -0.359369        -1.992437         0.486220
 H        -0.211599         0.974552         1.165430
 H         2.216444        -1.396475         3.668341
 H         0.749597        -2.120066         2.853525
 H         2.319920        -1.983090        -0.407528
