19
Iteration:  4640charge 0 multiplicity 1
 C         2.673608         1.200686        -0.177440
 C         1.753385         0.024515         0.008780
 C         0.710257        -0.419411        -0.919726
 C         0.433490        -1.265120         0.438089
 C         0.594828         0.059395         1.151909
 O         1.096133         0.058102         2.527857
 C         1.635892        -1.211013         2.720249
 O         2.557233        -1.667871         1.682785
 C         1.987923        -1.441811         0.478015
 H         3.159765         1.486398         0.776816
 H         3.541483         1.056738        -0.850919
 H         2.246704         2.042609        -0.696330
 H        -0.070184         0.227525        -1.192104
 H         1.041266        -0.980205        -1.807793
 H        -0.476747        -1.862822         0.547062
 H        -0.241182         0.779609         1.137701
 H         2.181341        -1.276481         3.620886
 H         0.706925        -1.970912         2.624981
 H         2.422431        -2.095972        -0.430124
