19
Iteration:  3906
 C         2.677429         1.349336        -0.188023
 C         1.717582         0.118128         0.084020
 C         0.672475        -0.490519        -0.972254
 C         0.343516        -1.206597         0.327443
 C         0.650916         0.023792         1.177506
 O         1.187858         0.004031         2.518338
 C         1.728549        -1.310923         2.800480
 O         2.517628        -1.688048         1.699535
 C         1.950002        -1.473414         0.441439
 H         3.221592         1.673538         0.747593
 H         3.300644         1.041896        -1.083518
 H         2.023060         2.234751        -0.307394
 H        -0.164336         0.203003        -1.358054
 H         0.972647        -0.973229        -1.852040
 H        -0.493609        -1.898895         0.285648
 H        -0.139568         0.892973         1.053611
 H         2.192297        -1.394860         3.781426
 H         0.811722        -1.894295         2.973442
 H         2.542871        -2.045324        -0.276590
