19
Iteration:  1533
 C         2.576115         1.147345        -0.142528
 C         1.634542         0.068883         0.126379
 C         0.544899        -0.334964        -0.911753
 C         0.413967        -1.288219         0.226202
 C         0.589888         0.038872         1.245580
 O         1.273159         0.017355         2.494004
 C         1.769475        -1.225910         2.774247
 O         2.514945        -1.700331         1.657542
 C         2.031375        -1.364473         0.389593
 H         3.255220         1.351438         0.755958
 H         3.380645         0.812811        -0.862437
 H         2.166550         2.055709        -0.477275
 H        -0.304466         0.362111        -1.022253
 H         0.797864        -0.852809        -1.772248
 H        -0.217206        -2.216930         0.153995
 H        -0.328208         0.638236         1.414160
 H         2.471597        -1.059651         3.621076
 H         1.008678        -2.009065         3.075893
 H         2.872617        -1.636916        -0.312112
