19
Iteration:  1171
 C         2.742630         1.122663        -0.253058
 C         1.683432         0.098934         0.130165
 C         0.595973        -0.301198        -0.864416
 C         0.342860        -1.348901         0.328262
 C         0.488455         0.001171         1.171473
 O         1.097719        -0.033024         2.574257
 C         1.839952        -1.210017         2.751249
 O         2.657705        -1.580385         1.628530
 C         1.934170        -1.392432         0.420453
 H         3.594701         0.961061         0.394339
 H         2.972187         1.062751        -1.364295
 H         2.448845         2.149643         0.025630
 H        -0.250624         0.402064        -1.118813
 H         0.931456        -0.825383        -1.780383
 H        -0.514119        -2.116047         0.514709
 H        -0.366894         0.714842         1.150546
 H         2.500510        -1.154809         3.648277
 H         1.158105        -2.098132         2.983996
 H         2.346975        -1.905536        -0.411492
