19
Iteration:  1101
 C         2.529068         1.172835        -0.200139
 C         1.668871         0.073841         0.047266
 C         0.576292        -0.444006        -0.955893
 C         0.325664        -1.154769         0.376565
 C         0.680623         0.171659         1.202056
 O         1.203033         0.012923         2.575124
 C         1.728256        -1.370497         2.712741
 O         2.723426        -1.661560         1.645845
 C         1.936435        -1.458707         0.485311
 H         2.711221         1.500465         0.853732
 H         3.406974         1.017483        -0.794744
 H         1.982769         2.053815        -0.635454
 H        -0.035379         0.388756        -1.239662
 H         0.991225        -0.968287        -1.828771
 H        -0.355344        -1.903847         0.586873
 H         0.049202         1.101458         1.111427
 H         2.182087        -1.499179         3.682174
 H         0.944120        -2.128270         2.616634
 H         2.401220        -2.052702        -0.405009
