19
Iteration:  4149
 C         2.933785         1.199183        -0.186441
 C         1.765657         0.143829         0.001570
 C         0.597226        -0.407204        -0.887214
 C         0.419675        -1.307390         0.380234
 C         0.547240        -0.033889         1.146571
 O         0.965305        -0.026849         2.539169
 C         1.703217        -1.232302         2.784069
 O         2.546709        -1.584977         1.679933
 C         1.948426        -1.395458         0.390259
 H         3.562116         0.960536         0.642549
 H         3.487711         1.160309        -1.165059
 H         2.558505         2.224459        -0.223951
 H        -0.279690         0.274229        -1.139566
 H         0.871808        -1.075728        -1.776743
 H        -0.461896        -1.981935         0.618179
 H        -0.259862         0.761238         1.018071
 H         2.413695        -0.948912         3.698270
 H         1.042798        -2.062719         3.173374
 H         2.320767        -2.105041        -0.405249
