19
Iteration:  4132
 C         2.740593         1.125638        -0.147001
 C         1.744279         0.066470         0.075777
 C         0.637525        -0.391149        -0.909070
 C         0.407758        -1.289140         0.294371
 C         0.614503         0.056957         1.186152
 O         1.051993         0.037990         2.491558
 C         1.714200        -1.195360         2.747716
 O         2.507253        -1.682832         1.714666
 C         1.989600        -1.413901         0.447431
 H         3.601560         1.234589         0.576897
 H         3.129854         0.973642        -1.139380
 H         2.136733         2.073282        -0.121714
 H        -0.075057         0.413854        -1.099162
 H         0.895746        -0.687213        -1.930616
 H        -0.112320        -2.236969         0.323865
 H        -0.179438         0.804728         1.126719
 H         2.328378        -0.935884         3.549368
 H         0.921183        -1.931828         2.856673
 H         2.655200        -1.891245        -0.288735
