19
Iteration:   485charge 0 multiplicity 1
 C         2.802252         1.106052        -0.047006
 C         1.678942         0.089861         0.059583
 C         0.453248        -0.409672        -0.908912
 C         0.362077        -1.339722         0.367166
 C         0.500344         0.000076         1.233912
 O         1.188309         0.096665         2.485127
 C         1.836340        -1.203192         2.731437
 O         2.619635        -1.638172         1.605244
 C         1.926611        -1.393645         0.360861
 H         3.215147         1.367487         0.906236
 H         3.672591         0.906886        -0.692933
 H         2.312653         2.032505        -0.369008
 H        -0.475657         0.186498        -1.064827
 H         0.772411        -0.850061        -1.835249
 H        -0.310635        -2.163289         0.417714
 H        -0.226747         0.829842         1.105954
 H         2.405072        -1.103622         3.628046
 H         0.981650        -1.875651         2.813764
 H         2.447179        -1.846050        -0.428245
