19
Iteration:  4191
 C         2.842683         1.044368        -0.183202
 C         1.703813         0.105716         0.096839
 C         0.697849        -0.401559        -0.918811
 C         0.265933        -1.190394         0.373890
 C         0.546111        -0.016532         1.197976
 O         0.998391        -0.029327         2.515901
 C         1.695584        -1.284845         2.695802
 O         2.638863        -1.443695         1.670791
 C         1.974481        -1.420896         0.449311
 H         3.552504         1.213117         0.632921
 H         3.432418         0.648615        -1.083021
 H         2.554144         2.039718        -0.562715
 H        -0.135248         0.388396        -1.085949
 H         1.170661        -0.862907        -1.760531
 H        -0.459179        -2.020290         0.421375
 H        -0.297889         0.713165         1.133149
 H         2.174861        -1.372879         3.708813
 H         0.970440        -2.124843         2.756070
 H         2.554702        -2.058969        -0.191918
