19
Iteration:   438charge 0 multiplicity 1
 C         2.715331         1.173306        -0.151666
 C         1.693014         0.088706         0.017352
 C         0.512951        -0.458510        -0.906731
 C         0.295781        -1.201767         0.371928
 C         0.611584         0.083134         1.158725
 O         1.168124        -0.041128         2.504810
 C         1.807813        -1.282015         2.714469
 O         2.647681        -1.581576         1.683763
 C         1.947810        -1.431211         0.463471
 H         3.531254         1.169082         0.650476
 H         3.221954         1.039838        -1.087496
 H         2.286064         2.206568         0.026534
 H        -0.153833         0.365550        -1.103345
 H         0.677204        -1.078874        -1.848692
 H        -0.478378        -1.905306         0.447238
 H        -0.227252         0.788187         1.314840
 H         2.278138        -1.035250         3.683708
 H         0.961787        -2.037988         2.723833
 H         2.280349        -2.190762        -0.341383
