19
Iteration:  3697
 C         2.819997         1.158162        -0.240471
 C         1.697645         0.130295         0.085483
 C         0.505650        -0.400929        -0.854984
 C         0.412817        -1.243098         0.358316
 C         0.609038         0.027759         1.205528
 O         1.025464        -0.029685         2.513718
 C         1.707031        -1.367662         2.769666
 O         2.614798        -1.584251         1.673721
 C         1.964329        -1.324653         0.372776
 H         3.430405         1.564022         0.563652
 H         3.493324         0.675729        -0.952382
 H         2.466522         2.093763        -0.759226
 H        -0.222819         0.355565        -1.092647
 H         0.890741        -0.845873        -1.765541
 H        -0.123070        -2.101712         0.741242
 H        -0.177854         0.862987         1.149353
 H         2.301592        -1.377098         3.670351
 H         0.993945        -2.201008         2.812394
 H         2.535414        -1.942608        -0.226263
