19
Iteration:   735charge 0 multiplicity 1
 C         2.678535         1.192131        -0.196281
 C         1.680876         0.050597        -0.004039
 C         0.618094        -0.383358        -0.786938
 C         0.353551        -1.226461         0.489589
 C         0.597060         0.094804         1.233859
 O         1.194404        -0.030775         2.482691
 C         1.699865        -1.328268         2.667048
 O         2.631873        -1.574483         1.643628
 C         1.955437        -1.434108         0.375173
 H         3.138425         1.375770         0.751208
 H         3.496418         0.848141        -0.939646
 H         2.259116         2.099675        -0.674921
 H        -0.280912         0.201061        -0.953887
 H         0.776368        -1.044398        -1.623141
 H        -0.465606        -1.922376         0.510012
 H        -0.050080         0.956042         1.217199
 H         2.131238        -1.215337         3.616853
 H         0.792593        -2.035089         2.700484
 H         2.423847        -2.144223        -0.471307
