19
Iteration:   113charge 0 multiplicity 1
 C         2.729826         1.174279        -0.322108
 C         1.700009         0.174910         0.035456
 C         0.631063        -0.305878        -0.906526
 C         0.403607        -1.271953         0.292623
 C         0.568624         0.026921         1.274910
 O         1.067178        -0.077387         2.530530
 C         1.882024        -1.216714         2.829394
 O         2.488383        -1.657461         1.715222
 C         1.893092        -1.482586         0.432426
 H         3.434545         1.404026         0.518814
 H         3.321056         0.960192        -1.191568
 H         2.199607         2.161585        -0.509416
 H        -0.132136         0.464690        -0.975109
 H         0.830470        -0.740347        -1.927097
 H        -0.175505        -2.326148         0.370333
 H        -0.215109         0.799891         1.122454
 H         2.787120        -0.878453         3.488760
 H         1.433501        -2.081497         3.249877
 H         2.355974        -2.180123        -0.215124
