19
Iteration:  1289
 C         2.658395         1.329957        -0.254297
 C         1.719665         0.130415         0.041846
 C         0.601604        -0.422292        -0.901677
 C         0.355016        -1.236129         0.479648
 C         0.710049         0.033409         1.165771
 O         1.053167        -0.174874         2.536693
 C         1.774988        -1.279654         2.761261
 O         2.602264        -1.631064         1.618499
 C         1.915755        -1.406725         0.379454
 H         2.931447         1.775569         0.654937
 H         3.500858         0.854653        -0.800693
 H         2.278127         2.127158        -0.952465
 H        -0.165746         0.318331        -1.110487
 H         0.920508        -0.988077        -1.801504
 H        -0.431571        -1.706857         1.103932
 H         0.191049         1.045024         1.332375
 H         2.296090        -0.989015         3.654341
 H         1.113474        -2.108552         3.170289
 H         2.487174        -2.211832        -0.308272
