19
Iteration:  4600
 C         2.678554         1.301682        -0.177562
 C         1.769462         0.138378         0.063668
 C         0.681485        -0.499973        -0.936847
 C         0.344525        -1.285263         0.351251
 C         0.615225         0.071736         1.092054
 O         1.174093         0.033454         2.439455
 C         1.653168        -1.180476         2.797693
 O         2.482355        -1.825819         1.734429
 C         2.041371        -1.409196         0.520256
 H         3.351094         1.422056         0.743206
 H         3.274170         1.219372        -1.125999
 H         1.984755         2.205291        -0.032268
 H        -0.142754         0.207883        -1.179384
 H         1.042752        -1.136143        -1.862874
 H        -0.583985        -1.869543         0.336425
 H        -0.304056         0.731015         1.021614
 H         2.405312        -0.882789         3.567966
 H         0.875017        -1.921782         2.950515
 H         2.627209        -1.930319        -0.232293
