19
Iteration:  3829
 C         2.795294         1.056109        -0.181286
 C         1.712052         0.053765         0.081155
 C         0.610097        -0.392997        -0.938530
 C         0.270504        -1.207581         0.335851
 C         0.565815         0.051154         1.214344
 O         1.018523        -0.070888         2.625007
 C         1.750892        -1.317984         2.685590
 O         2.716163        -1.486417         1.643674
 C         1.979784        -1.319206         0.407145
 H         3.261711         1.173082         0.849766
 H         3.471753         0.488997        -0.856731
 H         2.250834         1.944391        -0.597600
 H        -0.157959         0.400777        -1.270851
 H         0.945242        -1.015558        -1.730142
 H        -0.683838        -1.769977         0.376762
 H        -0.266824         0.872454         1.133352
 H         2.247860        -1.039096         3.625740
 H         0.966653        -2.100402         2.632184
 H         2.436064        -2.095215        -0.214308
