19
Iteration:   502charge 0 multiplicity 1
 C         2.655885         1.126691        -0.139860
 C         1.647085         0.151958         0.027489
 C         0.544060        -0.311854        -0.864911
 C         0.370881        -1.330547         0.328045
 C         0.630878         0.033201         1.181230
 O         1.145288        -0.063198         2.457413
 C         1.848574        -1.186613         2.779439
 O         2.569968        -1.647285         1.663609
 C         1.923231        -1.394169         0.428774
 H         3.194988         1.366977         0.852310
 H         3.406180         0.572212        -0.710207
 H         2.505401         2.038957        -0.759018
 H        -0.153403         0.514691        -0.940439
 H         0.863862        -0.750718        -1.873278
 H        -0.371062        -2.152890         0.612417
 H        -0.262050         0.693278         1.125380
 H         2.686217        -0.870736         3.480217
 H         1.236521        -1.982091         3.266601
 H         2.434031        -2.109766        -0.381815
