19
Iteration:  4818charge 0 multiplicity 1
 C         2.768456         1.210521        -0.200397
 C         1.816221         0.110301         0.004268
 C         0.646130        -0.479787        -0.895483
 C         0.441391        -1.243974         0.412657
 C         0.612081         0.079316         1.196592
 O         0.955981        -0.008439         2.540221
 C         1.697883        -1.218460         2.761628
 O         2.557248        -1.662922         1.616578
 C         1.937028        -1.411751         0.477128
 H         3.398931         1.498705         0.636699
 H         3.494476         0.915051        -0.977082
 H         2.244798         2.068361        -0.619679
 H        -0.086749         0.192004        -1.229369
 H         1.050470        -0.953578        -1.828508
 H        -0.278981        -2.009370         0.647176
 H        -0.133445         0.876132         1.029395
 H         2.182625        -1.181872         3.717526
 H         0.996978        -2.096668         2.917093
 H         2.320330        -2.103388        -0.381855
