19
Iteration:  4965charge 0 multiplicity 1
 C         2.693499         1.269707        -0.207031
 C         1.775143         0.104780         0.012781
 C         0.660078        -0.438032        -0.867650
 C         0.389544        -1.198169         0.417980
 C         0.600785         0.062247         1.084696
 O         1.141047         0.020719         2.416954
 C         1.600529        -1.239530         2.836337
 O         2.525188        -1.811243         1.709281
 C         2.015317        -1.438026         0.479423
 H         3.564647         1.336997         0.480001
 H         3.129689         1.411547        -1.190307
 H         2.227113         2.263313        -0.081171
 H        -0.015802         0.425100        -1.127015
 H         0.969692        -0.967165        -1.665195
 H        -0.365108        -2.009094         0.619442
 H        -0.173762         0.820435         0.977814
 H         2.263119        -0.970777         3.704955
 H         0.853466        -2.162247         3.017447
 H         2.503740        -1.966497        -0.341139
