19
Iteration:  2429
 C         2.626118         1.279595        -0.007240
 C         1.643681         0.065313        -0.000663
 C         0.658674        -0.425074        -0.965303
 C         0.240235        -1.255404         0.383409
 C         0.657978         0.147808         1.170900
 O         1.231004        -0.011367         2.443028
 C         1.802588        -1.338764         2.709943
 O         2.635497        -1.662091         1.675100
 C         1.861029        -1.456143         0.419569
 H         3.177430         1.253705         0.989915
 H         3.254756         1.239247        -0.889375
 H         2.121598         2.248856         0.079762
 H        -0.099714         0.299160        -1.301816
 H         1.041653        -1.165132        -1.808469
 H        -0.540172        -1.929216         0.462414
 H         0.022684         1.018530         1.335663
 H         2.328845        -1.243555         3.629172
 H         0.949735        -2.003704         2.776634
 H         2.435654        -2.135639        -0.203189
