19
Iteration:  2035charge 0 multiplicity 1
 C         2.780293         1.233320        -0.168399
 C         1.700801         0.147668         0.072815
 C         0.512022        -0.386887        -0.867689
 C         0.414703        -1.249636         0.401518
 C         0.612777         0.070308         1.217401
 O         1.063640        -0.049875         2.503953
 C         1.775792        -1.317334         2.754561
 O         2.597622        -1.733324         1.615395
 C         1.930276        -1.352067         0.330923
 H         3.434369         1.432648         0.741864
 H         3.303539         1.102410        -1.137837
 H         2.203416         2.183478        -0.381414
 H        -0.249871         0.330502        -1.093940
 H         0.928019        -0.812868        -1.760874
 H        -0.224497        -2.053212         0.673889
 H        -0.154544         0.850041         1.318759
 H         2.444033        -1.039126         3.540110
 H         1.104593        -2.102049         3.197178
 H         2.344770        -2.093360        -0.409981
