19
Iteration:  3964
 C         2.752115         1.146863        -0.131381
 C         1.699314         0.044732         0.039378
 C         0.618515        -0.370657        -0.986552
 C         0.375948        -1.343611         0.313081
 C         0.578856         0.001038         1.219473
 O         1.115440         0.030917         2.530907
 C         1.699034        -1.221501         2.819181
 O         2.606845        -1.603676         1.701498
 C         1.932572        -1.375535         0.401152
 H         3.560978         1.144381         0.591979
 H         3.284235         1.348060        -1.119345
 H         2.196508         2.058288         0.025362
 H        -0.167846         0.327617        -0.991744
 H         0.909758        -0.693988        -2.013181
 H        -0.246307        -2.256722         0.190190
 H        -0.143196         0.840106         1.049864
 H         2.197107        -1.175067         3.804384
 H         0.988796        -1.946416         2.536388
 H         2.422938        -2.041846        -0.384797
