19
Iteration:   850charge 0 multiplicity 1
 C         2.735137         1.067985        -0.139985
 C         1.669814         0.116384         0.064936
 C         0.436130        -0.456870        -0.869962
 C         0.429083        -1.292004         0.353069
 C         0.663535         0.108284         1.220744
 O         1.113769         0.043903         2.545649
 C         1.742804        -1.263931         2.690831
 O         2.610624        -1.640373         1.600726
 C         2.002136        -1.297229         0.396360
 H         3.337159         1.071009         0.845041
 H         3.384620         0.713056        -0.905592
 H         2.348395         2.121037        -0.269124
 H        -0.429974         0.207747        -1.030468
 H         0.686821        -1.010966        -1.845885
 H        -0.188052        -2.236768         0.509112
 H        -0.157729         0.884898         1.121669
 H         2.326253        -1.112164         3.674542
 H         0.902923        -1.989446         2.872716
 H         2.493572        -1.874580        -0.413756
