19
Iteration:   443
 C         2.749352         1.146388        -0.092338
 C         1.682461         0.061883        -0.007699
 C         0.517054        -0.474013        -0.907988
 C         0.304139        -1.229966         0.378395
 C         0.630124         0.111425         1.176214
 O         1.171668        -0.018749         2.468421
 C         1.768546        -1.325850         2.685132
 O         2.668170        -1.566115         1.672753
 C         1.917790        -1.360196         0.468230
 H         3.445688         1.195029         0.695315
 H         3.248905         1.128960        -1.112721
 H         2.149470         2.047426        -0.001825
 H        -0.345897         0.240353        -1.131855
 H         0.754461        -1.042973        -1.768090
 H        -0.539379        -1.996371         0.613670
 H        -0.138860         0.888664         1.356864
 H         2.382939        -1.066991         3.548447
 H         0.997981        -2.074411         2.821983
 H         2.217098        -2.099142        -0.189753
