19
Iteration:  2728charge 0 multiplicity 1
 C         2.611194         1.340500        -0.191033
 C         1.769357         0.080816         0.068455
 C         0.704508        -0.359060        -0.847646
 C         0.365297        -1.250121         0.357345
 C         0.669260         0.076167         1.158660
 O         1.141030         0.028584         2.507406
 C         1.750220        -1.358432         2.746444
 O         2.543808        -1.746085         1.644528
 C         1.862602        -1.486777         0.444024
 H         3.230671         1.554083         0.634071
 H         3.309569         1.272302        -1.106317
 H         1.865780         2.174805        -0.235412
 H        -0.013972         0.514139        -1.074987
 H         1.152820        -0.902843        -1.673799
 H        -0.438343        -2.003805         0.300683
 H        -0.069759         0.844350         1.215997
 H         2.358087        -1.292039         3.614231
 H         0.891463        -2.110568         2.863113
 H         2.404460        -2.076041        -0.308949
