19
Iteration:  2052charge 0 multiplicity 1
 C         2.603152         1.266058        -0.109254
 C         1.750034         0.073553         0.003777
 C         0.607356        -0.352703        -0.917857
 C         0.300000        -1.211849         0.379474
 C         0.675127         0.024311         1.160353
 O         1.212385        -0.042725         2.548260
 C         1.790782        -1.271926         2.733328
 O         2.567318        -1.642647         1.632522
 C         1.886060        -1.490866         0.414963
 H         3.248564         1.293340         0.754406
 H         3.418171         1.268432        -0.831846
 H         2.082773         2.209819        -0.048529
 H        -0.182423         0.419557        -1.156271
 H         0.810416        -1.017394        -1.797732
 H        -0.597274        -1.897725         0.354116
 H        -0.062925         0.844403         1.199163
 H         2.435805        -1.346624         3.639095
 H         1.047384        -2.100648         2.803125
 H         2.413518        -2.131132        -0.293214
