19
Iteration:   493charge 0 multiplicity 1
 C         2.764192         1.136938        -0.113652
 C         1.603745         0.059522         0.121043
 C         0.495372        -0.344757        -0.871655
 C         0.373920        -1.357868         0.353622
 C         0.582642         0.033085         1.113289
 O         1.177708         0.018852         2.462739
 C         1.861750        -1.181131         2.764443
 O         2.592252        -1.640477         1.647010
 C         1.884848        -1.369551         0.364378
 H         3.093602         1.324097         0.970451
 H         3.531929         0.651751        -0.691229
 H         2.383425         2.124735        -0.532822
 H        -0.225420         0.449828        -1.009573
 H         0.788912        -0.784467        -1.885770
 H        -0.180948        -2.247460         0.515340
 H        -0.216750         0.774796         1.299408
 H         2.484041        -1.017399         3.664684
 H         1.100164        -2.055759         3.044892
 H         2.558351        -1.970984        -0.420139
