19
Iteration:   965charge 0 multiplicity 1
 C         2.782251         1.165662        -0.233374
 C         1.642238         0.162793         0.022215
 C         0.485403        -0.412598        -0.878933
 C         0.424285        -1.354340         0.305386
 C         0.529268         0.060115         1.269775
 O         1.215263         0.073681         2.608274
 C         1.714044        -1.261494         2.706738
 O         2.640182        -1.692462         1.709535
 C         1.968011        -1.335923         0.348987
 H         3.506213         1.262372         0.589888
 H         3.358776         1.094472        -1.223611
 H         2.231060         2.087892        -0.170387
 H        -0.399998         0.308079        -1.035959
 H         0.763472        -0.821970        -1.866069
 H        -0.218847        -2.315958         0.291226
 H        -0.462679         0.446697         1.380308
 H         2.198244        -1.385383         3.696345
 H         0.839228        -2.011354         2.661211
 H         2.394786        -2.032531        -0.398248
