19
Iteration:  1904charge 0 multiplicity 1
 C         2.528863         1.191995        -0.087435
 C         1.687775         0.152839         0.084627
 C         0.625555        -0.320780        -0.911520
 C         0.418616        -1.287684         0.266388
 C         0.569238         0.055577         1.190229
 O         1.270079         0.061842         2.477060
 C         1.831614        -1.239253         2.790657
 O         2.475370        -1.821689         1.641191
 C         1.965488        -1.458402         0.419043
 H         3.249824         1.314923         0.825374
 H         3.310100         1.203873        -0.916456
 H         2.080845         2.168034        -0.210301
 H        -0.370761         0.268356        -1.051439
 H         1.085342        -0.666552        -1.886811
 H        -0.249846        -2.093504         0.321292
 H        -0.278366         0.817706         1.231702
 H         2.605841        -1.079135         3.474389
 H         1.046926        -1.858215         3.182281
 H         2.503387        -2.039030        -0.394291
