19
Iteration:  4843charge 0 multiplicity 1
 C         2.824656         1.026542        -0.226748
 C         1.686333         0.150902         0.058176
 C         0.562545        -0.347414        -0.907250
 C         0.371760        -1.282983         0.300778
 C         0.551528         0.016102         1.214139
 O         0.984743        -0.047139         2.492777
 C         1.719455        -1.253825         2.745082
 O         2.657420        -1.567546         1.736547
 C         2.006041        -1.335107         0.470898
 H         3.344373         1.406806         0.656409
 H         3.613602         0.425553        -0.753555
 H         2.586931         1.874030        -0.918617
 H        -0.271197         0.288927        -1.224762
 H         1.096467        -0.641282        -1.730340
 H        -0.498975        -1.954922         0.499082
 H        -0.233208         0.785985         1.122561
 H         2.199351        -1.116437         3.732468
 H         1.051272        -2.049386         2.885044
 H         2.600176        -1.856182        -0.300792
