19
Iteration:  4618charge 0 multiplicity 1
 C         2.611980         1.307181        -0.131391
 C         1.741792         0.078416         0.007959
 C         0.706571        -0.469906        -0.988467
 C         0.392726        -1.248333         0.324042
 C         0.684203         0.083999         1.118589
 O         1.166364         0.051287         2.459809
 C         1.701950        -1.274422         2.835187
 O         2.493256        -1.717205         1.786951
 C         1.912217        -1.479167         0.452752
 H         3.212986         1.566859         0.763602
 H         3.287825         1.266172        -1.001896
 H         1.969232         2.159378        -0.407850
 H         0.017452         0.249057        -1.378228
 H         1.071657        -1.097299        -1.801940
 H        -0.245438        -2.075478         0.597215
 H         0.121940         0.994195         1.000922
 H         2.306036        -1.188122         3.715327
 H         0.776398        -1.896307         2.936573
 H         2.346563        -2.282773        -0.299216
