19
Iteration:   379
 C         2.737945         1.234526        -0.406187
 C         1.665011         0.248982        -0.030062
 C         0.581123        -0.367767        -0.922514
 C         0.397556        -1.216300         0.433429
 C         0.665085         0.079127         1.211885
 O         1.074909        -0.092034         2.571391
 C         1.776213        -1.287368         2.850902
 O         2.579478        -1.808974         1.758595
 C         1.935558        -1.356453         0.414402
 H         3.458720         1.423258         0.347494
 H         3.219845         1.032306        -1.402773
 H         2.189582         2.123063        -0.599157
 H        -0.217411         0.384587        -1.205881
 H         1.052770        -0.714439        -1.795126
 H        -0.415340        -2.024599         0.590607
 H        -0.262440         0.563343         1.170233
 H         2.418034        -1.051575         3.707426
 H         1.176757        -2.205153         3.091236
 H         2.243175        -2.118927        -0.304445
