19
Iteration:  2568charge 0 multiplicity 1
 C         2.705351         1.264971        -0.087045
 C         1.669721         0.186718         0.093286
 C         0.533322        -0.380943        -0.921447
 C         0.415767        -1.346883         0.275213
 C         0.571631         0.025548         1.160964
 O         1.310162         0.005945         2.436117
 C         1.700223        -1.277109         2.719939
 O         2.480592        -1.715940         1.725378
 C         2.017959        -1.412441         0.458111
 H         3.612423         1.288200         0.576256
 H         3.081616         1.345374        -1.085401
 H         2.405426         2.312703         0.095411
 H        -0.270801         0.354241        -1.009042
 H         0.666857        -0.922076        -1.801078
 H        -0.357258        -2.173852         0.386876
 H        -0.372464         0.516059         1.140968
 H         2.321095        -1.224651         3.585672
 H         0.817365        -1.917119         2.958422
 H         2.516913        -1.923452        -0.327579
