19
Iteration:  4649charge 0 multiplicity 1
 C         2.745008         1.184869        -0.182754
 C         1.741754         0.106767         0.067330
 C         0.638763        -0.479450        -0.863753
 C         0.389066        -1.259972         0.355582
 C         0.591836         0.051132         1.151042
 O         1.071356         0.057697         2.497337
 C         1.655101        -1.250214         2.723370
 O         2.588368        -1.649957         1.712651
 C         1.988959        -1.389659         0.423218
 H         3.151829         1.576017         0.723497
 H         3.493311         0.700310        -0.785170
 H         2.283581         2.017196        -0.639661
 H        -0.075032         0.306024        -1.106344
 H         0.933522        -1.064849        -1.685620
 H        -0.273034        -2.147720         0.557793
 H         0.002195         0.932062         0.938890
 H         2.153939        -1.310271         3.700742
 H         0.754069        -1.980088         2.627218
 H         2.449973        -2.093549        -0.282845
