19
Iteration:  2607charge 0 multiplicity 1
 C         2.691619         1.279278        -0.016562
 C         1.745633         0.052327         0.076349
 C         0.600550        -0.445080        -0.924734
 C         0.381518        -1.223550         0.374273
 C         0.579620         0.120681         1.158732
 O         1.055606         0.026191         2.503501
 C         1.853235        -1.250808         2.662530
 O         2.537556        -1.748313         1.598089
 C         1.961695        -1.443006         0.429997
 H         3.429379         1.027228         0.666127
 H         3.148462         1.180085        -1.044033
 H         2.123906         2.194329         0.217905
 H        -0.097623         0.399971        -1.220953
 H         0.884871        -1.052689        -1.851162
 H        -0.383557        -1.967312         0.586026
 H        -0.227255         0.932965         1.273899
 H         2.633116        -1.046041         3.425954
 H         1.124833        -2.052424         2.943140
 H         2.539521        -2.125446        -0.259124
