19
Iteration:  3808charge 0 multiplicity 1
 C         2.765213         1.165834        -0.123355
 C         1.721020         0.095789         0.014461
 C         0.643263        -0.345358        -0.862602
 C         0.364444        -1.280364         0.373883
 C         0.584772         0.081739         1.195476
 O         1.001393        -0.047335         2.476032
 C         1.796210        -1.267707         2.731685
 O         2.662205        -1.596288         1.660791
 C         1.877527        -1.462079         0.424780
 H         3.562674         1.243758         0.700049
 H         3.237461         0.764417        -1.065443
 H         2.261291         2.140472        -0.306495
 H        -0.283538         0.306769        -1.112675
 H         0.909413        -0.772110        -1.801748
 H        -0.355114        -2.054451         0.655466
 H        -0.211281         0.923286         1.040179
 H         2.277940        -0.960290         3.700622
 H         0.990935        -2.063307         2.814165
 H         2.399682        -2.068636        -0.371037
