19
Iteration:   903
 C         2.668918         1.239473        -0.245609
 C         1.699538         0.138937        -0.015833
 C         0.539366        -0.481532        -0.893817
 C         0.252930        -1.195281         0.387203
 C         0.731610         0.120091         1.165314
 O         1.056849        -0.072149         2.670386
 C         1.786817        -1.292325         2.776994
 O         2.600746        -1.686643         1.629261
 C         2.070241        -1.418198         0.376502
 H         3.057632         1.475793         0.812891
 H         3.481769         0.988026        -0.893864
 H         2.130668         2.094085        -0.730452
 H        -0.041028         0.302611        -1.351934
 H         1.000130        -1.046257        -1.713829
 H        -0.574802        -1.742916         0.676709
 H        -0.081782         0.910781         1.216151
 H         2.479079        -1.022829         3.638446
 H         1.012359        -2.006753         2.911656
 H         2.456847        -2.133890        -0.471460
