19
Iteration:  3364charge 0 multiplicity 1
 C         2.706571         1.152759        -0.225814
 C         1.721618         0.096302         0.002358
 C         0.590606        -0.301686        -0.931895
 C         0.388459        -1.204930         0.476770
 C         0.646150         0.088589         1.198233
 O         1.043449        -0.111937         2.560260
 C         1.719873        -1.351907         2.690008
 O         2.680025        -1.586562         1.655184
 C         1.889943        -1.430892         0.473679
 H         3.451890         1.208291         0.658621
 H         3.365120         0.996215        -1.105114
 H         2.190394         2.093348        -0.126824
 H        -0.151596         0.558018        -1.235456
 H         1.008559        -0.831306        -1.792771
 H        -0.436084        -1.879632         0.497144
 H        -0.106703         0.885902         1.006399
 H         2.283846        -1.260712         3.598170
 H         0.976727        -2.097019         2.624134
 H         2.320155        -2.061640        -0.273292
