19
Iteration:  3578
 C         2.667360         1.323559        -0.168515
 C         1.667878         0.139561         0.036725
 C         0.613683        -0.416529        -0.950353
 C         0.450489        -1.286557         0.387707
 C         0.615975         0.038162         1.225944
 O         1.270958         0.041178         2.444740
 C         1.693112        -1.262995         2.764106
 O         2.439646        -1.805074         1.683921
 C         2.008399        -1.382301         0.437197
 H         3.461232         1.143375         0.541871
 H         3.103391         1.259787        -1.202601
 H         2.202996         2.215364         0.155341
 H        -0.307538         0.189333        -1.214565
 H         0.974907        -0.878300        -1.890461
 H        -0.338247        -2.000543         0.596665
 H        -0.281478         0.709726         1.377705
 H         2.282691        -1.298308         3.682092
 H         0.735120        -1.904673         2.817413
 H         2.633903        -2.033408        -0.224417
