19
Iteration:  2760
 C         2.693574         1.267592        -0.054445
 C         1.665736         0.225465         0.033922
 C         0.552640        -0.423782        -0.928725
 C         0.469093        -1.292151         0.335987
 C         0.625870         0.069639         1.138897
 O         1.197149         0.074968         2.455827
 C         1.793445        -1.352704         2.766127
 O         2.475874        -1.811144         1.682393
 C         1.944599        -1.384878         0.445473
 H         3.332570         1.005882         0.724178
 H         3.138100         1.235226        -1.137640
 H         2.190534         2.245610         0.134382
 H        -0.307284         0.245276        -1.194664
 H         0.930124        -0.862878        -1.854907
 H        -0.187298        -2.151143         0.358493
 H        -0.267966         0.743960         1.075717
 H         2.427432        -1.222984         3.603298
 H         0.925134        -1.972731         3.056116
 H         2.547813        -1.782921        -0.330406
