19
Iteration:   755
 C         2.776570         1.212576        -0.223907
 C         1.693894         0.147240         0.027135
 C         0.330408        -0.458550        -0.941860
 C         0.450023        -1.305698         0.422007
 C         0.724406         0.107177         1.180395
 O         1.139757         0.044955         2.553329
 C         1.697184        -1.387138         2.695332
 O         2.615781        -1.678729         1.667278
 C         2.016987        -1.338436         0.464726
 H         3.310954         1.385214         0.694550
 H         3.488360         0.957403        -1.016432
 H         2.281709         2.190638        -0.393217
 H        -0.506353         0.227138        -1.001564
 H         0.560142        -1.008617        -1.903173
 H        -0.324993        -2.042841         0.884899
 H        -0.103684         0.792723         1.159079
 H         2.176041        -1.296895         3.620350
 H         0.787942        -1.972438         2.872517
 H         2.410403        -1.801456        -0.438804
