19
Iteration:  4414charge 0 multiplicity 1
 C         2.730053         1.223031        -0.192981
 C         1.716513         0.045618         0.031509
 C         0.679748        -0.442809        -0.919157
 C         0.389504        -1.318521         0.313248
 C         0.515927         0.044530         1.170399
 O         1.156271         0.125689         2.444479
 C         1.643147        -1.279471         2.742956
 O         2.508258        -1.752161         1.784307
 C         2.060150        -1.352441         0.467586
 H         3.263194         1.536938         0.698424
 H         3.392998         1.141658        -0.964166
 H         2.101738         2.086848        -0.292605
 H         0.143404         0.384005        -1.186575
 H         1.050129        -1.062196        -1.783629
 H        -0.375007        -2.046562         0.490653
 H        -0.165224         0.934333         1.214793
 H         2.232043        -1.161032         3.609701
 H         0.673874        -1.904675         2.832142
 H         2.664982        -1.912330        -0.148020
