19
Iteration:  2028charge 0 multiplicity 1
 C         2.755164         1.201080        -0.203866
 C         1.720339         0.207222         0.106988
 C         0.480201        -0.374653        -0.878344
 C         0.439642        -1.264586         0.426075
 C         0.597964         0.087901         1.158715
 O         1.027080        -0.055097         2.553492
 C         1.798439        -1.308760         2.726395
 O         2.576494        -1.758481         1.596147
 C         1.950521        -1.326693         0.403385
 H         3.572810         1.389390         0.514077
 H         3.432987         0.848879        -0.998255
 H         2.402750         2.272077        -0.364981
 H        -0.342365         0.374426        -1.047440
 H         0.846250        -0.894347        -1.872610
 H        -0.161741        -2.185122         0.575104
 H        -0.252453         0.826171         1.182851
 H         2.593845        -1.127751         3.561440
 H         1.190077        -2.203749         3.030234
 H         2.581386        -1.926574        -0.352274
