19
Iteration:  4816charge 0 multiplicity 1
 C         2.759653         1.218801        -0.200814
 C         1.815171         0.101116        -0.004729
 C         0.640919        -0.478932        -0.892151
 C         0.441675        -1.249583         0.409021
 C         0.632135         0.073472         1.198784
 O         0.963985        -0.011060         2.534887
 C         1.687598        -1.212673         2.758169
 O         2.552031        -1.664279         1.627237
 C         1.933362        -1.409791         0.473189
 H         3.407781         1.511882         0.633890
 H         3.487385         0.970204        -0.971874
 H         2.255957         2.095652        -0.576678
 H        -0.139648         0.155704        -1.288054
 H         1.146608        -0.930407        -1.830919
 H        -0.327218        -1.952197         0.677562
 H        -0.096232         0.878762         1.067670
 H         2.242117        -1.184927         3.694683
 H         0.954152        -2.126646         2.919748
 H         2.317716        -2.104760        -0.321335
