19
Iteration:   770charge 0 multiplicity 1
 C         2.836059         1.290410        -0.257606
 C         1.696759         0.158279         0.034757
 C         0.438448        -0.491268        -0.863887
 C         0.393035        -1.309590         0.345405
 C         0.569887         0.068439         1.251548
 O         1.166804         0.034771         2.579708
 C         1.753987        -1.278106         2.777270
 O         2.541301        -1.696086         1.676660
 C         1.965491        -1.382772         0.321076
 H         3.624707         1.307865         0.522544
 H         3.354884         0.975437        -1.243373
 H         2.416055         2.299613        -0.326049
 H        -0.479066         0.150613        -0.955373
 H         0.690376        -0.969232        -1.767171
 H        -0.221186        -2.115735         0.413810
 H        -0.234244         0.830615         1.208007
 H         2.420335        -1.392422         3.683056
 H         0.993429        -2.080090         2.844932
 H         2.694795        -2.070711        -0.287943
