19
Iteration:  3269
 C         2.699565         1.360753        -0.123225
 C         1.729938         0.074131        -0.040180
 C         0.560469        -0.412755        -0.925875
 C         0.387985        -1.184534         0.419412
 C         0.683499         0.091484         1.213951
 O         1.132117         0.011164         2.465794
 C         1.746507        -1.389377         2.723964
 O         2.544402        -1.727775         1.665934
 C         1.926406        -1.480403         0.431144
 H         3.224348         1.474774         0.809271
 H         3.517614         1.459769        -0.770742
 H         2.128823         2.310645        -0.156576
 H        -0.182423         0.210358        -1.281988
 H         0.821990        -1.278928        -1.571526
 H        -0.368020        -1.972250         0.584652
 H        -0.072726         0.946607         1.159929
 H         2.423520        -1.143714         3.555575
 H         0.914117        -2.128370         3.014826
 H         2.392568        -2.111727        -0.352464
