19
Iteration:  1629charge 0 multiplicity 1
 C         2.783476         1.061539        -0.302025
 C         1.633520         0.192015         0.166865
 C         0.471391        -0.259692        -0.812947
 C         0.485543        -1.359871         0.371695
 C         0.616347        -0.019789         1.204503
 O         0.979020        -0.053050         2.569930
 C         1.740698        -1.271596         2.753870
 O         2.627404        -1.628836         1.647843
 C         2.012862        -1.311866         0.322881
 H         3.702767         1.147950         0.322398
 H         3.268628         0.779409        -1.302431
 H         2.467143         2.061767        -0.439366
 H        -0.264386         0.625616        -0.892230
 H         0.698429        -0.771677        -1.783622
 H        -0.170100        -2.137077         0.422417
 H        -0.190951         0.769621         1.177363
 H         2.478258        -1.148742         3.585758
 H         1.109326        -2.146358         3.003921
 H         2.700516        -1.624260        -0.536376
