19
Iteration:  4850charge 0 multiplicity 1
 C         2.874411         1.029436        -0.217651
 C         1.624744         0.160773         0.065328
 C         0.573238        -0.353472        -0.924454
 C         0.379467        -1.267408         0.303031
 C         0.594378         0.001806         1.158805
 O         1.035476        -0.100364         2.513608
 C         1.707569        -1.225720         2.844994
 O         2.619736        -1.497041         1.670924
 C         1.971213        -1.340073         0.492187
 H         3.234763         1.389090         0.739925
 H         3.481333         0.301887        -0.740419
 H         2.567283         1.774089        -0.923277
 H        -0.261053         0.322444        -1.022057
 H         1.153171        -0.709451        -1.934726
 H        -0.265291        -2.103883         0.427637
 H        -0.227023         0.748006         1.179571
 H         2.104476        -1.025491         3.835014
 H         0.924021        -2.146042         2.593226
 H         2.537746        -2.032745        -0.276765
