19
Iteration:  4100charge 0 multiplicity 1
 C         2.709922         1.326411        -0.145958
 C         1.724927         0.143958        -0.001424
 C         0.698848        -0.508656        -0.983508
 C         0.350990        -1.219495         0.368209
 C         0.611148         0.041754         1.167824
 O         1.221785         0.017226         2.470299
 C         1.628180        -1.246171         2.737476
 O         2.522634        -1.740010         1.737529
 C         1.935625        -1.455704         0.506452
 H         3.324627         1.430370         0.799415
 H         3.297292         1.344569        -1.043950
 H         2.034895         2.190161        -0.350537
 H        -0.061654         0.278078        -1.312069
 H         1.072513        -1.158402        -1.780433
 H        -0.236241        -2.099112         0.519346
 H        -0.157248         0.790801         1.224867
 H         2.071343        -1.168559         3.680188
 H         0.823253        -2.021600         2.923289
 H         2.443718        -1.992823        -0.279860
