19
Iteration:  3207charge 0 multiplicity 1
 C         2.773843         1.208796        -0.243108
 C         1.704380         0.161531         0.091548
 C         0.550538        -0.347255        -0.900934
 C         0.462321        -1.248951         0.350602
 C         0.564865         0.105767         1.202288
 O         1.099080        -0.027507         2.564842
 C         1.682147        -1.370925         2.800017
 O         2.572874        -1.716315         1.623466
 C         1.999921        -1.347674         0.411918
 H         3.494469         1.188671         0.569371
 H         3.208664         0.716305        -1.199523
 H         2.224420         2.210909        -0.396011
 H        -0.304538         0.394383        -1.097010
 H         0.665371        -0.864356        -1.908244
 H        -0.183499        -2.124583         0.613000
 H        -0.232519         0.828693         1.160253
 H         2.450883        -1.240851         3.561192
 H         0.874520        -2.178174         2.949825
 H         2.631066        -1.947256        -0.316573
