19
Iteration:  3335
 C         2.937312         1.138145        -0.217323
 C         1.682297         0.161314         0.053238
 C         0.443930        -0.379515        -0.861268
 C         0.324471        -1.274450         0.408289
 C         0.646816         0.033063         1.262690
 O         0.998541        -0.127390         2.579954
 C         1.754002        -1.309723         2.686837
 O         2.618686        -1.507626         1.617799
 C         1.957528        -1.344599         0.369489
 H         3.350585         1.115437         0.761402
 H         3.572921         0.644616        -0.928652
 H         2.572351         2.173302        -0.495444
 H        -0.212994         0.353370        -1.193458
 H         1.014542        -0.975029        -1.617554
 H        -0.510202        -2.016419         0.409384
 H        -0.118687         0.816366         1.009648
 H         2.388353        -1.220661         3.600513
 H         0.982223        -2.175104         2.814237
 H         2.559049        -1.826100        -0.450040
