19
Iteration:  4398charge 0 multiplicity 1
 C         2.746897         1.192010        -0.191646
 C         1.741561         0.155244         0.100756
 C         0.666116        -0.387293        -0.929144
 C         0.466782        -1.311098         0.329569
 C         0.657419         0.022522         1.120174
 O         1.040189         0.038826         2.518026
 C         1.637773        -1.161405         2.775063
 O         2.531980        -1.677611         1.729514
 C         1.948539        -1.471140         0.438534
 H         3.450147         1.301206         0.672944
 H         3.341029         0.710776        -1.095604
 H         2.304670         2.187137        -0.522646
 H        -0.334376         0.225955        -1.099012
 H         1.058749        -0.835151        -1.849242
 H        -0.252356        -2.171891         0.386063
 H        -0.235243         0.593359         0.921095
 H         2.219072        -1.183154         3.757750
 H         0.882461        -1.913702         3.020788
 H         2.464417        -2.138974        -0.373572
