19
Iteration:  4156charge 0 multiplicity 1
 C         2.916774         1.173921        -0.189591
 C         1.713399         0.192572        -0.022573
 C         0.606834        -0.450248        -0.923602
 C         0.403773        -1.229068         0.376676
 C         0.586302        -0.005538         1.154291
 O         0.923412        -0.038226         2.553495
 C         1.728933        -1.270143         2.779328
 O         2.587526        -1.566233         1.703930
 C         1.925514        -1.431519         0.408547
 H         3.611024         0.944555         0.682527
 H         3.479731         0.863120        -1.098182
 H         2.652258         2.228446        -0.093356
 H        -0.412347         0.051709        -1.151362
 H         0.904726        -0.848630        -1.833961
 H        -0.292629        -1.957601         0.673399
 H        -0.104908         0.772791         1.016915
 H         2.378225        -0.898974         3.484321
 H         1.080460        -2.140771         2.977402
 H         2.378035        -2.082524        -0.278330
