19
Iteration:   640
 C         2.710715         1.147296        -0.107698
 C         1.697386         0.044362         0.037171
 C         0.635015        -0.348019        -0.993304
 C         0.297934        -1.257305         0.427870
 C         0.538114        -0.006409         1.174119
 O         1.174111        -0.047431         2.496497
 C         1.889242        -1.186953         2.796958
 O         2.578827        -1.594053         1.622968
 C         1.842487        -1.409388         0.381172
 H         3.494778         1.094688         0.632198
 H         3.131099         1.070093        -1.135115
 H         2.187774         2.084310        -0.029450
 H        -0.197084         0.380518        -1.117429
 H         0.856099        -1.014076        -1.779851
 H        -0.454496        -2.018002         0.528872
 H        -0.071647         0.899032         1.275311
 H         2.643311        -0.919357         3.600766
 H         1.194830        -1.961146         3.238956
 H         2.273471        -2.139224        -0.232353
