19
Iteration:  2499charge 0 multiplicity 1
 C         2.753732         1.086080        -0.305653
 C         1.660545         0.218778         0.027372
 C         0.557528        -0.303988        -0.888751
 C         0.376929        -1.210259         0.354215
 C         0.583897         0.044711         1.212039
 O         1.014312        -0.163398         2.619294
 C         1.765672        -1.379728         2.733919
 O         2.644795        -1.572649         1.704023
 C         1.998786        -1.348166         0.427501
 H         3.284103         1.566491         0.475502
 H         3.479596         0.447588        -0.912304
 H         2.653724         1.999010        -0.940951
 H        -0.173797         0.513119        -1.074912
 H         0.846136        -0.784426        -1.813830
 H        -0.532825        -1.894805         0.379108
 H        -0.220396         0.817617         1.357354
 H         2.358004        -1.223660         3.674483
 H         1.060307        -2.210613         2.805357
 H         2.765606        -1.728188        -0.349027
