19
Iteration:  3654charge 0 multiplicity 1
 C         2.898945         1.107570        -0.199078
 C         1.698288         0.122334         0.087486
 C         0.548503        -0.360250        -0.928800
 C         0.362789        -1.276263         0.417329
 C         0.595724         0.051960         1.208506
 O         0.977889        -0.103529         2.600219
 C         1.799346        -1.292872         2.683135
 O         2.612620        -1.507440         1.643736
 C         1.920231        -1.351373         0.365952
 H         3.227613         1.422924         0.772000
 H         3.586556         0.613176        -0.840124
 H         2.438782         1.913569        -0.751871
 H        -0.259111         0.302246        -1.311392
 H         0.824670        -1.003646        -1.792721
 H        -0.421147        -2.009295         0.516830
 H        -0.323653         0.738350         1.163920
 H         2.407335        -1.184912         3.572991
 H         1.115086        -2.048493         2.981424
 H         2.502963        -1.960264        -0.330975
