19
Iteration:   329charge 0 multiplicity 1
 C         2.747436         1.132244        -0.073286
 C         1.669298         0.052832        -0.001233
 C         0.488542        -0.445196        -0.868482
 C         0.425225        -1.260643         0.475267
 C         0.592217         0.108549         1.211475
 O         1.194518         0.095624         2.497301
 C         1.677669        -1.295744         2.614036
 O         2.655939        -1.600733         1.624350
 C         1.927383        -1.424948         0.405996
 H         3.074810         1.267912         1.019764
 H         3.601396         0.793186        -0.650730
 H         2.403333         2.168902        -0.407136
 H        -0.366617         0.187144        -1.042195
 H         0.639553        -1.123177        -1.781218
 H        -0.266580        -2.048564         0.658235
 H        -0.164408         0.933348         1.024427
 H         2.234047        -1.279984         3.562179
 H         0.944271        -2.082427         2.375125
 H         2.400878        -2.116113        -0.377076
