19
Iteration:  2263charge 0 multiplicity 1
 C         2.730987         1.399227        -0.089547
 C         1.723091         0.124075         0.055047
 C         0.607122        -0.481112        -0.955804
 C         0.369494        -1.197187         0.357244
 C         0.554727         0.071403         1.218065
 O         1.134407        -0.070012         2.492829
 C         1.804530        -1.224591         2.782091
 O         2.560958        -1.794425         1.609093
 C         1.900723        -1.420308         0.385590
 H         3.256439         1.515338         0.910207
 H         3.503787         0.990466        -0.770630
 H         2.038064         2.222505        -0.281923
 H        -0.257449         0.212789        -1.353109
 H         1.008958        -1.083490        -1.798692
 H        -0.271687        -2.081370         0.616572
 H        -0.224656         0.873895         1.255906
 H         2.615738        -0.903200         3.513460
 H         1.103060        -2.026401         3.095653
 H         2.249078        -2.135606        -0.360786
