19
Iteration:  2604charge 0 multiplicity 1
 C         2.665520         1.248739        -0.018491
 C         1.742807         0.070048         0.085273
 C         0.599026        -0.418826        -0.956473
 C         0.406578        -1.239398         0.362861
 C         0.562803         0.129447         1.148671
 O         1.083908         0.045829         2.515490
 C         1.841437        -1.252055         2.671171
 O         2.532384        -1.755579         1.604163
 C         1.961886        -1.447981         0.418741
 H         3.512004         1.007675         0.723876
 H         3.065575         1.207039        -1.028702
 H         2.094229         2.172295         0.217747
 H        -0.069561         0.349793        -1.253691
 H         0.869352        -1.066301        -1.857948
 H        -0.332631        -1.984630         0.558990
 H        -0.223670         0.850285         1.412329
 H         2.646578        -1.054482         3.455933
 H         1.115613        -2.067002         2.978961
 H         2.533899        -2.121956        -0.174534
