19
Iteration:  2903
 C         2.643670         1.354070        -0.116479
 C         1.679714         0.048199         0.006367
 C         0.609253        -0.499645        -0.980833
 C         0.423322        -1.131323         0.403807
 C         0.736448         0.081813         1.163196
 O         1.185722         0.014925         2.586518
 C         1.649942        -1.410909         2.778834
 O         2.539479        -1.664283         1.647608
 C         1.985577        -1.447340         0.348988
 H         3.058382         1.453280         0.850090
 H         3.400293         1.156645        -0.968502
 H         2.068418         2.248431        -0.346666
 H        -0.239325         0.105687        -1.346249
 H         1.060383        -1.043854        -1.755881
 H        -0.448627        -1.775089         0.674010
 H        -0.131629         0.832964         1.211118
 H         2.202997        -1.453314         3.713153
 H         0.722964        -1.921254         2.859509
 H         2.410000        -2.136093        -0.389275
