19
Iteration:  3420
 C         2.616269         1.340988        -0.131010
 C         1.709590         0.190489         0.070683
 C         0.607520        -0.470241        -0.890871
 C         0.441853        -1.243207         0.420099
 C         0.665327         0.033776         1.196710
 O         1.224365         0.057119         2.484303
 C         1.678217        -1.268831         2.744084
 O         2.498840        -1.849232         1.631849
 C         1.945935        -1.456966         0.369590
 H         3.395985         1.322131         0.694183
 H         3.259224         1.304733        -0.977038
 H         2.303284         2.401139        -0.159794
 H        -0.306002         0.172027        -1.100514
 H         0.934060        -0.947028        -1.870129
 H        -0.397823        -1.919769         0.321559
 H        -0.025991         0.922691         1.063937
 H         2.414581        -1.134282         3.555189
 H         0.845802        -1.905639         3.120352
 H         2.465683        -2.045290        -0.363925
