19
Iteration:  2474
 C         2.875798         1.116528        -0.247917
 C         1.744777         0.218264         0.118560
 C         0.489208        -0.322576        -0.764049
 C         0.481034        -1.375131         0.438462
 C         0.574102         0.000117         1.236982
 O         0.960454        -0.063655         2.570741
 C         1.715829        -1.271604         2.656417
 O         2.603274        -1.625719         1.577810
 C         1.904031        -1.330470         0.331812
 H         3.361603         1.640811         0.636486
 H         3.660162         0.675273        -0.889943
 H         2.641531         2.123201        -0.714686
 H        -0.246776         0.450876        -0.981503
 H         0.986101        -0.729932        -1.795930
 H         0.065522        -2.340421         0.526948
 H        -0.252122         0.798741         1.278970
 H         2.384632        -0.999610         3.514444
 H         0.996609        -2.061578         2.841041
 H         2.392254        -1.934550        -0.538857
