19
Iteration:  4034charge 0 multiplicity 1
 C         2.758226         1.091065        -0.212657
 C         1.711127         0.143667         0.091008
 C         0.635436        -0.326744        -0.934431
 C         0.372505        -1.312393         0.316786
 C         0.641864         0.000168         1.211461
 O         1.037912        -0.117353         2.541119
 C         1.655939        -1.244028         2.792643
 O         2.608683        -1.532953         1.690240
 C         1.965413        -1.341229         0.403369
 H         3.283253         1.456544         0.711702
 H         3.536600         0.613108        -0.782829
 H         2.428205         1.960522        -0.839611
 H        -0.218147         0.344725        -1.255270
 H         0.978811        -0.927154        -1.842393
 H        -0.492926        -1.964630         0.540909
 H        -0.062330         0.812699         1.123844
 H         2.382460        -1.057478         3.586505
 H         0.903596        -2.070977         2.953915
 H         2.462101        -1.871272        -0.417724
