19
Iteration:  3587
 C         2.687070         1.271260        -0.101044
 C         1.648974         0.185722         0.053833
 C         0.620488        -0.383244        -0.908088
 C         0.435114        -1.324848         0.376437
 C         0.635272        -0.014948         1.171891
 O         1.322726         0.082409         2.465499
 C         1.649204        -1.266707         2.758885
 O         2.464177        -1.766983         1.694927
 C         1.947666        -1.445345         0.377479
 H         3.539230         1.330253         0.517496
 H         2.812449         1.278987        -1.151477
 H         2.139130         2.250648        -0.101770
 H        -0.112342         0.293255        -1.332970
 H         1.099311        -1.010033        -1.777895
 H        -0.205553        -2.220873         0.626413
 H        -0.311641         0.665604         1.177137
 H         2.192204        -1.246791         3.711767
 H         0.779708        -1.872579         3.004664
 H         2.432850        -1.764094        -0.497818
