19
Iteration:  2995
 C         2.820005         1.095555        -0.232634
 C         1.756280         0.126885         0.013504
 C         0.582972        -0.401935        -0.876044
 C         0.310889        -1.177553         0.427865
 C         0.586965         0.090001         1.190617
 O         0.899128        -0.160768         2.545385
 C         1.791115        -1.318874         2.680568
 O         2.709856        -1.531067         1.626527
 C         1.916515        -1.332852         0.462576
 H         3.395699         1.139264         0.766377
 H         3.593652         0.928001        -0.938441
 H         2.539559         2.160053        -0.190194
 H        -0.119456         0.423519        -1.035817
 H         0.810219        -0.857134        -1.874705
 H        -0.370025        -2.039253         0.555607
 H        -0.152437         0.792972         1.250137
 H         2.292892        -1.137096         3.672534
 H         1.131371        -2.203979         2.752061
 H         2.388442        -2.093775        -0.214321
