19
Iteration:  1074charge 0 multiplicity 1
 C         2.747460         1.282779        -0.220695
 C         1.673959         0.216154         0.080645
 C         0.483626        -0.394882        -0.854669
 C         0.448384        -1.264568         0.400077
 C         0.656006        -0.011912         1.213103
 O         1.190079        -0.009899         2.484586
 C         1.741958        -1.257783         2.744970
 O         2.549772        -1.710411         1.633081
 C         1.929874        -1.484331         0.404239
 H         2.952914         1.718953         0.751952
 H         3.607780         1.053808        -0.926349
 H         2.146683         2.055676        -0.690791
 H        -0.480360         0.181080        -1.115153
 H         0.995496        -0.944879        -1.651192
 H        -0.346604        -2.080556         0.666076
 H        -0.167668         0.667456         1.135707
 H         2.352574        -1.192824         3.687122
 H         0.928081        -1.969784         2.933082
 H         2.438395        -1.974799        -0.392307
