19
Iteration:   659charge 0 multiplicity 1
 C         2.687863         1.117048        -0.174638
 C         1.642712         0.064699         0.093123
 C         0.525375        -0.357520        -0.894777
 C         0.365572        -1.286339         0.279675
 C         0.671725         0.074091         1.226059
 O         1.038418         0.052626         2.591046
 C         1.915145        -1.147963         2.783357
 O         2.573983        -1.741095         1.575076
 C         1.946900        -1.465672         0.397463
 H         3.338978         1.169026         0.680051
 H         3.348813         0.930403        -1.102536
 H         2.224606         2.123707        -0.167366
 H        -0.188882         0.458050        -1.055988
 H         0.967360        -0.729403        -1.799834
 H        -0.395645        -1.988093         0.347275
 H        -0.177040         0.742346         1.098048
 H         2.653892        -0.771999         3.401575
 H         1.304130        -1.809468         3.344464
 H         2.492053        -2.077805        -0.432562
