19
Iteration:  1923charge 0 multiplicity 1
 C         2.662918         1.211127        -0.086404
 C         1.647476         0.214735         0.070106
 C         0.579594        -0.329516        -0.938230
 C         0.383506        -1.367070         0.280021
 C         0.549948        -0.053603         1.269943
 O         1.312375         0.033703         2.491224
 C         1.774833        -1.222555         2.757652
 O         2.507002        -1.763485         1.655283
 C         1.957090        -1.373726         0.390387
 H         3.373905         1.327836         0.806719
 H         3.111740         1.048115        -1.137181
 H         2.188133         2.161837        -0.298942
 H        -0.072921         0.440387        -1.359044
 H         0.909596        -0.905833        -1.774965
 H        -0.377018        -2.201782         0.492096
 H        -0.218915         0.738201         1.177970
 H         2.329868        -1.207877         3.734062
 H         0.844843        -1.872114         3.015368
 H         2.575960        -1.791995        -0.427398
