19
Iteration:  3989
 C         2.854808         1.102731        -0.127868
 C         1.655749         0.138965         0.054926
 C         0.549387        -0.452248        -0.875073
 C         0.353933        -1.188609         0.396927
 C         0.630191         0.038849         1.164586
 O         0.959809        -0.144587         2.498713
 C         1.731160        -1.212929         2.733343
 O         2.604126        -1.501889         1.660589
 C         2.006753        -1.396165         0.417571
 H         3.622293         1.039518         0.654211
 H         3.375142         0.850351        -1.060683
 H         2.598042         2.211574        -0.286478
 H        -0.179630         0.281197        -1.212400
 H         1.096278        -0.916116        -1.827457
 H        -0.328470        -2.072998         0.631886
 H        -0.193577         0.781016         1.023031
 H         2.435154        -1.037934         3.615853
 H         1.070361        -2.109488         2.623738
 H         2.523983        -2.031207        -0.385609
