19
Iteration:  3832
 C         2.790873         1.048862        -0.169929
 C         1.718700         0.063823         0.036274
 C         0.622383        -0.400350        -0.915171
 C         0.258258        -1.205441         0.334458
 C         0.561837         0.050331         1.238658
 O         1.017299        -0.068146         2.614157
 C         1.767961        -1.333108         2.682018
 O         2.687193        -1.475082         1.659879
 C         1.985517        -1.303193         0.395991
 H         3.301061         1.256384         0.816696
 H         3.460345         0.461726        -0.843871
 H         2.349140         1.914496        -0.605473
 H        -0.152045         0.332063        -1.293133
 H         0.897003        -1.033652        -1.772011
 H        -0.644807        -1.799415         0.443209
 H        -0.216046         0.841585         1.133146
 H         2.247139        -1.125097         3.648218
 H         0.973256        -2.139953         2.664592
 H         2.484408        -2.044295        -0.304744
