19
Iteration:   529charge 0 multiplicity 1
 C         2.747472         1.285706        -0.318024
 C         1.798997         0.136590         0.082190
 C         0.567809        -0.446765        -0.910380
 C         0.288937        -1.290699         0.341766
 C         0.623609         0.143789         1.216709
 O         0.982733        -0.111444         2.658985
 C         1.895208        -1.220283         2.809917
 O         2.583058        -1.742121         1.620853
 C         1.875810        -1.379425         0.381451
 H         3.224487         1.713882         0.517110
 H         3.600366         0.949237        -0.969221
 H         2.258368         2.064162        -0.882886
 H         0.073395         0.482706        -1.293865
 H         0.889855        -1.050349        -1.716959
 H        -0.234944        -2.116988         0.659873
 H        -0.224867         0.823348         1.140025
 H         2.695296        -0.890652         3.434980
 H         1.281209        -2.082515         3.279407
 H         2.237941        -1.972911        -0.389744
