19
Iteration:  2645charge 0 multiplicity 1
 C         2.750585         1.094551        -0.169928
 C         1.661489         0.094752         0.020680
 C         0.577020        -0.349731        -0.951556
 C         0.366199        -1.196068         0.320317
 C         0.601273         0.010880         1.214056
 O         1.024592        -0.089980         2.592405
 C         1.832913        -1.333704         2.720249
 O         2.595289        -1.532908         1.687049
 C         1.953203        -1.358968         0.407710
 H         3.342104         1.197119         0.848457
 H         3.516047         0.855048        -0.874848
 H         2.586035         2.123695        -0.492492
 H        -0.165204         0.449980        -0.999428
 H         0.784597        -0.710897        -1.942360
 H        -0.392795        -2.034478         0.388539
 H        -0.179710         0.938575         1.173930
 H         2.472567        -1.221151         3.599870
 H         1.142448        -2.131033         2.927235
 H         2.493725        -2.024562        -0.342432
