19
Iteration:  3930
 C         2.650567         1.292685        -0.110201
 C         1.697261         0.154594        -0.030205
 C         0.681738        -0.517205        -0.935627
 C         0.456754        -1.216809         0.451598
 C         0.637490         0.128588         1.118925
 O         1.131897        -0.003206         2.458258
 C         1.702897        -1.257854         2.755166
 O         2.511819        -1.835526         1.679324
 C         1.962830        -1.362847         0.456547
 H         3.336108         1.298176         0.758394
 H         3.168189         1.322700        -1.123298
 H         2.052150         2.162792         0.049152
 H        -0.187786         0.100815        -1.213514
 H         1.063392        -0.944328        -1.814454
 H        -0.135805        -2.085614         0.680612
 H        -0.146609         0.987368         1.140240
 H         2.254731        -1.233115         3.662958
 H         0.860658        -1.863512         3.037073
 H         2.398114        -1.968318        -0.362673
