19
Iteration:  4827
 C         2.830161         1.156348        -0.247366
 C         1.731052         0.102365         0.104402
 C         0.681090        -0.427600        -0.911734
 C         0.409300        -1.235542         0.416325
 C         0.531310         0.112401         1.130756
 O         0.945648        -0.009690         2.566072
 C         1.729957        -1.258887         2.749077
 O         2.614876        -1.649456         1.685553
 C         1.967711        -1.385585         0.388041
 H         3.240197         1.447020         0.728608
 H         3.521119         0.697181        -0.935922
 H         2.326472         1.992630        -0.694241
 H        -0.025355         0.398300        -0.969771
 H         0.644529        -1.237073        -1.750922
 H        -0.156850        -2.141793         0.431553
 H        -0.316827         0.808075         1.051759
 H         2.325620        -1.013541         3.627209
 H         0.885999        -2.103001         2.814235
 H         2.453864        -2.042888        -0.384285
