19
Iteration:  1480
 C         2.684937         1.158675        -0.199897
 C         1.744161         0.048312         0.065824
 C         0.552054        -0.412161        -0.934666
 C         0.292731        -1.146726         0.478049
 C         0.677338         0.106049         1.157635
 O         0.995593        -0.079954         2.606963
 C         1.818820        -1.365010         2.694935
 O         2.711785        -1.578406         1.645527
 C         1.932533        -1.376182         0.373910
 H         2.896489         1.705865         0.753916
 H         3.541370         1.075218        -0.823430
 H         2.116414         1.916939        -0.718932
 H        -0.245271         0.314952        -1.163124
 H         0.898515        -0.897319        -1.829119
 H        -0.359432        -2.088349         0.630084
 H         0.072812         0.997020         1.096308
 H         2.375412        -1.248854         3.634304
 H         1.132975        -2.288699         2.600467
 H         2.259583        -2.092051        -0.350918
