19
Iteration:   181charge 0 multiplicity 1
 C         2.777509         1.109337         0.042354
 C         1.689105         0.031292         0.174075
 C         0.576567        -0.325071        -0.995389
 C         0.319274        -1.231109         0.210584
 C         0.586212         0.016595         1.170625
 O         0.906403        -0.280847         2.607201
 C         2.217425        -0.661361         2.614916
 O         2.374706        -1.812155         1.679413
 C         1.876171        -1.540468         0.366326
 H         3.503347         1.054475         0.852454
 H         3.418909         0.749970        -0.824542
 H         2.472143         2.164152         0.010656
 H        -0.208759         0.458203        -1.124140
 H         0.889588        -0.870425        -1.870435
 H        -0.641855        -1.898956         0.236420
 H        -0.039051         0.904289         1.189671
 H         3.016266         0.133708         2.273785
 H         2.578919        -0.941086         3.573815
 H         2.417905        -2.063060        -0.406589
