19
Iteration:  1192charge 0 multiplicity 1
 C         2.726778         1.191959        -0.140054
 C         1.669845         0.066194         0.037173
 C         0.564458        -0.501833        -0.925498
 C         0.373870        -1.175706         0.471437
 C         0.665562         0.105836         1.200526
 O         1.014676        -0.116244         2.531412
 C         1.829817        -1.277878         2.692087
 O         2.641593        -1.517785         1.603722
 C         1.917293        -1.399608         0.386650
 H         3.548502         0.965940         0.515276
 H         3.034192         1.313269        -1.216898
 H         2.385997         2.204983         0.216736
 H        -0.210508         0.240544        -1.192235
 H         0.842431        -1.232051        -1.713693
 H        -0.359803        -2.057159         0.671883
 H        -0.070025         0.969988         1.171580
 H         2.451760        -1.086723         3.576138
 H         1.163980        -2.092680         2.998469
 H         2.176805        -2.170047        -0.365968
