19
Iteration:  2073
 C         2.582723         1.215627         0.008795
 C         1.691378         0.047576         0.061146
 C         0.579116        -0.413047        -0.950419
 C         0.340756        -1.247914         0.361084
 C         0.658792         0.156432         1.216414
 O         1.269430         0.062960         2.473197
 C         1.756944        -1.334590         2.691038
 O         2.630783        -1.705648         1.666441
 C         1.899226        -1.446043         0.346967
 H         3.237378         1.388466         0.863734
 H         3.355193         1.274947        -0.822609
 H         1.765169         2.033316         0.035758
 H        -0.293393         0.310708        -1.156585
 H         0.983662        -0.939179        -1.912845
 H        -0.450875        -2.051109         0.585356
 H        -0.024961         1.005075         1.014211
 H         2.338984        -1.363620         3.690787
 H         0.827341        -1.992089         2.680637
 H         2.196844        -2.104487        -0.540035
