19
Iteration:  4928
 C         2.695403         1.286474        -0.175509
 C         1.706428         0.066933        -0.018843
 C         0.648877        -0.427416        -0.970766
 C         0.422234        -1.310305         0.233388
 C         0.608153         0.010666         1.173400
 O         1.258090         0.108138         2.599552
 C         1.588704        -1.210038         2.850063
 O         2.507558        -1.748082         1.719117
 C         1.945198        -1.411456         0.420420
 H         3.424629         1.146538         0.603094
 H         3.151017         1.032143        -1.133437
 H         2.164371         2.233307        -0.126521
 H        -0.054488         0.303795        -1.360558
 H         1.067292        -1.114204        -1.929130
 H        -0.387600        -1.983935         0.377492
 H        -0.189534         0.776678         1.265088
 H         2.224533        -1.106502         3.767288
 H         0.784028        -2.048116         3.061413
 H         2.623257        -2.040817        -0.272373
