19
Iteration:   242charge 0 multiplicity 1
 C         2.705613         1.178904        -0.235013
 C         1.757366         0.071400        -0.026464
 C         0.645150        -0.357316        -0.958371
 C         0.415770        -1.187618         0.361981
 C         0.604488         0.119680         1.194796
 O         0.894838        -0.278175         2.589133
 C         2.139609        -0.980612         2.792227
 O         2.329294        -1.856433         1.676712
 C         1.925132        -1.348646         0.426904
 H         3.434157         1.013211         0.633246
 H         3.291917         1.287662        -1.129085
 H         2.176958         2.184581        -0.173246
 H        -0.079955         0.397182        -1.190307
 H         0.787460        -0.912458        -1.964298
 H        -0.293181        -1.970557         0.754281
 H        -0.209163         0.941589         1.117577
 H         2.912624        -0.192786         3.107231
 H         2.028665        -1.575251         3.763323
 H         2.464630        -1.972305        -0.351064
