19
Iteration:  2310
 C         2.874790         1.199886        -0.239383
 C         1.649044         0.149819        -0.025080
 C         0.508672        -0.341149        -0.845836
 C         0.396453        -1.297718         0.363901
 C         0.584340         0.036708         1.203345
 O         1.103195        -0.108708         2.579165
 C         1.714579        -1.384456         2.724269
 O         2.624200        -1.507644         1.670526
 C         1.961430        -1.357552         0.431392
 H         3.185480         1.460304         0.794953
 H         3.616897         0.699057        -0.793361
 H         2.360305         2.083083        -0.621225
 H        -0.317922         0.287427        -0.845726
 H         0.578665        -0.880076        -1.828754
 H        -0.346062        -2.005350         0.291191
 H        -0.285273         0.737400         1.182284
 H         2.288551        -1.413997         3.605919
 H         0.884754        -2.154015         2.616383
 H         2.563804        -1.997520        -0.251428
