19
Iteration:   133charge 0 multiplicity 1
 C         2.742430         1.126791        -0.175226
 C         1.687633         0.100216         0.111968
 C         0.599373        -0.363923        -0.890540
 C         0.305292        -1.250079         0.277991
 C         0.590642         0.015584         1.175419
 O         0.962667        -0.077688         2.567708
 C         1.965097        -0.992407         2.822381
 O         2.548212        -1.812078         1.619536
 C         1.957806        -1.376976         0.385772
 H         3.574686         1.304264         0.536399
 H         3.223723         0.769883        -1.025468
 H         2.278655         2.110979        -0.379726
 H        -0.090377         0.422586        -1.126704
 H         1.064162        -0.879131        -1.794543
 H        -0.652042        -1.805128         0.503312
 H        -0.359070         0.615713         1.041972
 H         2.963132        -0.694900         3.269699
 H         1.645526        -1.856890         3.464414
 H         2.423409        -1.853797        -0.481775
