19
Iteration:   609charge 0 multiplicity 1
 C         2.718492         1.146983        -0.118468
 C         1.659324         0.112636        -0.015716
 C         0.537443        -0.476441        -0.915733
 C         0.385292        -1.265208         0.537362
 C         0.590520         0.080576         1.167396
 O         1.147589         0.042268         2.559225
 C         1.748399        -1.256604         2.636596
 O         2.640316        -1.661128         1.632027
 C         1.989766        -1.329614         0.359848
 H         3.465935         0.914128         0.679930
 H         3.255720         1.114326        -1.056984
 H         2.381056         2.140688         0.145986
 H        -0.435465         0.083414        -1.079494
 H         0.641336        -1.132097        -1.830574
 H        -0.443846        -2.100127         0.729278
 H        -0.030936         1.004554         1.066891
 H         2.206046        -1.359333         3.701137
 H         0.809896        -1.925699         2.622560
 H         2.434773        -1.964646        -0.361767
