19
Iteration:   469charge 0 multiplicity 1
 C         2.741082         1.157255         0.016859
 C         1.616308         0.100805        -0.025551
 C         0.518775        -0.532473        -0.870599
 C         0.384086        -1.250587         0.445688
 C         0.634905         0.080775         1.187633
 O         1.178093         0.074858         2.547225
 C         1.725991        -1.203824         2.590500
 O         2.630140        -1.588415         1.562920
 C         1.959580        -1.414517         0.362147
 H         3.210086         0.946071         1.033598
 H         3.427211         0.757965        -0.726148
 H         2.520920         2.245579        -0.111663
 H        -0.234441         0.190080        -1.157076
 H         0.737088        -1.258797        -1.717655
 H        -0.454966        -1.952262         0.696219
 H        -0.289316         0.607731         1.359524
 H         2.397537        -1.223076         3.512259
 H         0.925258        -2.015730         2.699166
 H         2.300510        -2.301421        -0.343863
