19
Iteration:  4028charge 0 multiplicity 1
 C         2.774860         1.098194        -0.224639
 C         1.707862         0.145055         0.068316
 C         0.630724        -0.340395        -0.979280
 C         0.391844        -1.284916         0.358297
 C         0.605990         0.008192         1.236513
 O         0.968715        -0.096734         2.565254
 C         1.728910        -1.250148         2.772364
 O         2.612355        -1.548319         1.672052
 C         1.990379        -1.340190         0.394430
 H         3.227577         1.303482         0.748449
 H         3.560014         0.512145        -0.784740
 H         2.535912         1.971255        -0.784728
 H        -0.221450         0.324216        -1.274962
 H         1.013628        -0.901046        -1.785713
 H        -0.504360        -1.881364         0.500636
 H        -0.157125         0.818553         1.258767
 H         2.267746        -1.178686         3.736960
 H         1.011818        -2.062377         2.950919
 H         2.434814        -1.994777        -0.378352
