19
Iteration:  3190
 C         2.817930         1.142734        -0.251215
 C         1.728845         0.167927        -0.010444
 C         0.498374        -0.353951        -0.878722
 C         0.364881        -1.184071         0.391654
 C         0.629790         0.083666         1.227384
 O         0.979425        -0.174629         2.529297
 C         1.779903        -1.325223         2.725620
 O         2.670672        -1.652978         1.725350
 C         1.930228        -1.325862         0.423472
 H         3.478216         1.258844         0.647272
 H         3.470810         0.998067        -1.072939
 H         2.494654         2.117372        -0.442859
 H        -0.288051         0.408363        -1.126666
 H         0.818569        -0.812165        -1.783656
 H        -0.470677        -1.886516         0.484794
 H        -0.149793         0.931613         1.096203
 H         2.297384        -1.158761         3.689706
 H         1.100405        -2.154135         2.800026
 H         2.282040        -1.912456        -0.400729
