19
Iteration:  4708
 C         2.851632         1.033751        -0.198713
 C         1.709404         0.094997         0.153072
 C         0.648511        -0.414383        -0.897271
 C         0.375457        -1.262948         0.304432
 C         0.572533         0.076455         1.120331
 O         0.925769        -0.073209         2.574618
 C         1.747251        -1.184696         2.719880
 O         2.626619        -1.484107         1.640387
 C         1.925044        -1.424315         0.471893
 H         3.533496         1.286065         0.656456
 H         3.416202         0.765986        -1.119260
 H         2.283166         1.954969        -0.596946
 H        -0.202067         0.230079        -0.987098
 H         1.033923        -0.800487        -1.888451
 H        -0.350656        -2.001708         0.498874
 H         0.003956         1.019447         1.174303
 H         2.247850        -1.119461         3.707606
 H         1.105799        -2.167647         2.730832
 H         2.560996        -2.255179        -0.202579
