19
Iteration:  3435charge 0 multiplicity 1
 C         2.695606         1.331456        -0.088747
 C         1.739652         0.079360         0.023425
 C         0.569992        -0.391611        -0.905705
 C         0.320561        -1.264011         0.324345
 C         0.636371         0.126837         1.125478
 O         1.224415        -0.025846         2.478089
 C         1.780588        -1.278359         2.746986
 O         2.529075        -1.779333         1.680053
 C         1.931070        -1.420500         0.472897
 H         3.330620         1.592637         0.719564
 H         3.353543         1.237971        -0.999789
 H         1.846469         2.044520        -0.129682
 H        -0.133603         0.312320        -1.297071
 H         0.845930        -1.043797        -1.801043
 H        -0.321107        -2.052650         0.832461
 H        -0.296358         0.790825         1.206003
 H         2.392215        -1.191948         3.658995
 H         0.938243        -1.912646         2.739476
 H         2.343344        -2.080291        -0.351124
