19
Iteration:  3898
 C         2.645408         1.266998        -0.166985
 C         1.703679         0.096409         0.049876
 C         0.715510        -0.402363        -0.919261
 C         0.387354        -1.234944         0.331576
 C         0.650008         0.027343         1.150508
 O         1.166343        -0.013046         2.507035
 C         1.690940        -1.296105         2.777636
 O         2.543871        -1.650663         1.707196
 C         1.908597        -1.444302         0.429649
 H         3.258321         1.627642         0.668993
 H         3.281747         0.924521        -1.045998
 H         1.960546         1.977207        -0.585526
 H        -0.146475         0.263992        -0.998433
 H         1.155847        -0.774642        -1.856874
 H        -0.361433        -1.984645         0.499106
 H        -0.060941         0.815519         1.347320
 H         2.353217        -1.338448         3.624778
 H         0.754011        -1.896701         2.810809
 H         2.461837        -2.135743        -0.232373
