19
Iteration:  2395charge 0 multiplicity 1
 C         2.653803         1.276437        -0.084189
 C         1.713842         0.188145         0.061739
 C         0.525589        -0.420857        -0.889500
 C         0.441502        -1.388340         0.360512
 C         0.664357         0.055173         1.207911
 O         1.159983         0.091695         2.482547
 C         1.732530        -1.264974         2.718908
 O         2.473176        -1.845021         1.659335
 C         2.037492        -1.360616         0.350703
 H         3.556470         1.201028         0.619325
 H         3.185494         1.379133        -0.997418
 H         2.218269         2.230057         0.033917
 H        -0.305021         0.359463        -0.970189
 H         0.724126        -0.823871        -1.951763
 H        -0.165982        -2.230684         0.491569
 H        -0.040221         0.856947         1.101119
 H         2.410207        -1.135139         3.502188
 H         0.938504        -1.925479         3.085488
 H         2.552202        -1.867395        -0.404900
