19
Iteration:  1902
 C         2.542261         1.208686        -0.086369
 C         1.700636         0.170644         0.069051
 C         0.622614        -0.320412        -0.886678
 C         0.419830        -1.292214         0.264774
 C         0.565747         0.062491         1.196588
 O         1.258783         0.048940         2.469443
 C         1.835750        -1.235019         2.782914
 O         2.477888        -1.821659         1.639717
 C         1.958406        -1.482120         0.416141
 H         3.214206         1.328601         0.873867
 H         3.315181         1.252298        -0.952433
 H         2.071958         2.167664        -0.223985
 H        -0.346344         0.243865        -1.109290
 H         1.037568        -0.712976        -1.808607
 H        -0.297097        -2.156688         0.336763
 H        -0.230415         0.886126         1.168853
 H         2.626734        -1.051543         3.532370
 H         1.035372        -1.876402         3.248842
 H         2.479870        -2.051841        -0.399138
