19
Iteration:  2211
 C         2.715428         1.240928        -0.100689
 C         1.686404         0.093055         0.139444
 C         0.590368        -0.317763        -0.853394
 C         0.377460        -1.374225         0.371362
 C         0.602707        -0.009592         1.185586
 O         1.147853         0.096282         2.507939
 C         1.718990        -1.274126         2.643025
 O         2.597922        -1.704982         1.602313
 C         1.969288        -1.416581         0.382269
 H         3.622749         1.220981         0.543416
 H         3.070905         0.944685        -1.097888
 H         2.081595         2.156651        -0.119400
 H        -0.214776         0.382788        -0.992698
 H         1.011468        -0.807544        -1.731126
 H        -0.419952        -2.050953         0.536761
 H        -0.250735         0.721201         1.188445
 H         2.171770        -1.278071         3.657926
 H         0.807059        -1.944844         2.877275
 H         2.698903        -1.889300        -0.346034
