19
Iteration:  1709
 C         2.748013         1.277052        -0.088633
 C         1.659123         0.153356         0.056817
 C         0.394643        -0.414038        -0.919915
 C         0.422630        -1.261750         0.396613
 C         0.629757        -0.008421         1.181535
 O         1.251734         0.029498         2.466245
 C         1.696551        -1.264272         2.710769
 O         2.557159        -1.733593         1.675655
 C         2.025668        -1.411268         0.363717
 H         3.181954         1.495895         0.943539
 H         3.526025         0.997397        -0.791526
 H         2.360471         2.313842        -0.387562
 H        -0.525687         0.207709        -0.925245
 H         0.742417        -0.850704        -1.864773
 H        -0.043809        -2.270898         0.457326
 H        -0.188506         0.720959         1.316040
 H         2.229591        -1.180347         3.621133
 H         0.790152        -1.888231         2.808965
 H         2.508535        -2.112493        -0.368798
