19
Iteration:   717charge 0 multiplicity 1
 C         2.721068         1.176929        -0.196770
 C         1.690654         0.066907         0.149458
 C         0.552930        -0.432650        -0.942321
 C         0.288181        -1.229011         0.349076
 C         0.635894         0.057667         1.188204
 O         1.163093         0.003624         2.603624
 C         1.825252        -1.262240         2.718355
 O         2.638645        -1.621207         1.613567
 C         1.835109        -1.400998         0.424412
 H         3.213536         1.648217         0.683751
 H         3.471737         0.891840        -0.977093
 H         2.104377         1.877362        -0.752516
 H        -0.031520         0.455886        -1.325151
 H         1.021494        -0.878133        -1.809241
 H        -0.418602        -1.996985         0.627332
 H        -0.230003         0.762570         1.240126
 H         2.499610        -1.403294         3.633039
 H         1.072219        -2.030134         2.608628
 H         2.317149        -2.146704        -0.189904
