19
Iteration:  1721
 C         2.785308         1.363767        -0.078318
 C         1.669954         0.250880         0.040896
 C         0.402818        -0.481971        -0.855357
 C         0.539173        -1.390699         0.288583
 C         0.657240        -0.015761         1.218813
 O         1.276077         0.058779         2.454653
 C         1.672545        -1.232572         2.739750
 O         2.483367        -1.774955         1.674026
 C         1.965005        -1.407756         0.360101
 H         3.345922         1.258114         0.884252
 H         3.445827         1.035061        -0.854484
 H         2.288152         2.410709        -0.345376
 H        -0.473390         0.147864        -0.823966
 H         0.394058        -0.925592        -1.849669
 H        -0.397560        -1.903456         0.630788
 H        -0.284561         0.546809         1.145169
 H         2.317660        -1.317854         3.577197
 H         0.804720        -1.870402         2.893871
 H         2.547072        -1.937855        -0.400452
