19
Iteration:   921charge 0 multiplicity 1
 C         2.716060         1.379484        -0.289373
 C         1.786016         0.077516         0.014433
 C         0.599061        -0.447788        -0.915194
 C         0.362054        -1.168298         0.456704
 C         0.584040         0.100702         1.241862
 O         1.031626        -0.070348         2.550288
 C         1.819533        -1.292233         2.755554
 O         2.639424        -1.754303         1.638474
 C         1.901426        -1.454217         0.443215
 H         3.246726         1.712066         0.564037
 H         3.474061         1.135038        -1.102263
 H         2.017940         2.144569        -0.600362
 H        -0.243753         0.249220        -1.193864
 H         0.715594        -1.165922        -1.742827
 H        -0.440597        -1.979630         0.640943
 H         0.006728         0.981456         1.162965
 H         2.431623        -1.099692         3.632395
 H         0.992909        -2.073125         3.018812
 H         2.282384        -2.040884        -0.389633
