19
Iteration:  4927
 C         2.695480         1.284287        -0.179063
 C         1.709884         0.068993        -0.023100
 C         0.654377        -0.424473        -0.970618
 C         0.412520        -1.311420         0.240972
 C         0.608898         0.007984         1.174242
 O         1.254520         0.093189         2.596375
 C         1.592935        -1.202778         2.846603
 O         2.509064        -1.742954         1.722728
 C         1.947769        -1.406489         0.426055
 H         3.394843         1.126068         0.633732
 H         3.167562         1.033532        -1.134436
 H         2.171440         2.234097        -0.124169
 H        -0.047171         0.311259        -1.356404
 H         1.047545        -1.134899        -1.937310
 H        -0.402553        -1.979133         0.363489
 H        -0.182829         0.774542         1.273032
 H         2.222446        -1.118885         3.736576
 H         0.794616        -1.993225         3.029501
 H         2.592556        -2.032562        -0.273575
