19
Iteration:  1777
 C         2.735525         1.280641        -0.272379
 C         1.767321         0.082600         0.045531
 C         0.622602        -0.437186        -0.905361
 C         0.248149        -1.202520         0.362457
 C         0.615060         0.101356         1.254600
 O         1.045303        -0.151866         2.567585
 C         1.834237        -1.340762         2.710544
 O         2.643679        -1.609845         1.658669
 C         1.858699        -1.387383         0.453738
 H         3.431641         1.453671         0.513810
 H         3.336137         1.330429        -1.168803
 H         2.247964         2.347715        -0.142291
 H        -0.040669         0.309482        -1.207700
 H         1.014192        -1.070683        -1.721816
 H        -0.562504        -1.993850         0.529661
 H         0.216185         1.090129         1.167171
 H         2.439829        -1.160488         3.646400
 H         1.085105        -2.175444         2.793945
 H         2.062988        -2.094154        -0.323325
