19
Iteration:  1674charge 0 multiplicity 1
 C         2.687483         1.207726        -0.158677
 C         1.731520         0.046333         0.104586
 C         0.633708        -0.392902        -0.911877
 C         0.220428        -1.143070         0.382561
 C         0.598924         0.101949         1.283507
 O         1.078127        -0.111133         2.575420
 C         1.819205        -1.279055         2.690650
 O         2.664372        -1.564368         1.581850
 C         1.910163        -1.454160         0.402772
 H         3.337140         1.630755         0.658135
 H         3.473402         0.821519        -0.893914
 H         2.155233         1.951564        -0.707259
 H        -0.112031         0.212918        -1.578596
 H         1.143716        -1.040814        -1.683587
 H        -0.426848        -1.938407         0.525122
 H        -0.132341         0.943089         1.157718
 H         2.471613        -1.268154         3.561904
 H         1.240897        -2.247575         2.766514
 H         2.185800        -2.278242        -0.344568
