19
Iteration:  1993charge 0 multiplicity 1
 C         2.822510         1.124107        -0.307790
 C         1.699893         0.140536         0.121132
 C         0.546831        -0.210380        -0.931947
 C         0.382165        -1.279352         0.389935
 C         0.558467         0.012697         1.228050
 O         1.074231        -0.148199         2.601973
 C         1.787309        -1.393504         2.769790
 O         2.620420        -1.497334         1.643332
 C         1.893243        -1.344963         0.437663
 H         3.518740         1.232763         0.550655
 H         3.220877         0.654106        -1.214277
 H         2.341254         2.080962        -0.699707
 H        -0.267500         0.460065        -1.276443
 H         0.932766        -0.816563        -1.844098
 H        -0.105641        -2.209330         0.467803
 H        -0.299183         0.695032         1.089626
 H         2.391101        -1.297824         3.710975
 H         1.004302        -2.180817         2.793689
 H         2.299008        -1.858447        -0.481163
