19
Iteration:  4554charge 0 multiplicity 1
 C         2.849440         1.127202        -0.149527
 C         1.768555        -0.009560         0.020873
 C         0.540103        -0.427653        -0.959015
 C         0.354204        -1.279462         0.346432
 C         0.537318         0.051824         1.173005
 O         1.010580        -0.008792         2.485953
 C         1.692327        -1.282164         2.750150
 O         2.630237        -1.481345         1.784588
 C         1.977315        -1.382087         0.392513
 H         3.688005         1.169171         0.652338
 H         3.374671         0.864130        -1.108670
 H         2.332101         2.151793        -0.096148
 H        -0.092833         0.406331        -1.233474
 H         1.047675        -1.098151        -1.773709
 H        -0.383963        -1.930999         0.668871
 H        -0.154692         0.905184         1.129622
 H         2.181177        -1.178856         3.667712
 H         0.869631        -2.035034         2.696286
 H         2.684758        -1.968836        -0.328645
