19
Iteration:   711charge 0 multiplicity 1
 C         2.703165         1.159222        -0.181736
 C         1.648712         0.083899         0.069590
 C         0.557592        -0.412486        -0.941967
 C         0.324091        -1.197196         0.312694
 C         0.621987         0.095622         1.175598
 O         1.145898        -0.050177         2.639600
 C         1.895079        -1.230204         2.771287
 O         2.617376        -1.668720         1.630242
 C         1.859964        -1.385620         0.380973
 H         3.214416         1.595085         0.680173
 H         3.395757         0.739813        -0.910557
 H         2.199645         1.959092        -0.789262
 H        -0.188659         0.311997        -1.202042
 H         1.073593        -1.020890        -1.761778
 H        -0.339959        -2.115296         0.621694
 H        -0.119414         0.880502         1.242067
 H         2.349460        -1.138390         3.746970
 H         0.997299        -1.962009         2.895614
 H         2.315544        -2.089213        -0.380698
