19
Iteration:  4939
 C         2.677682         1.233801        -0.161498
 C         1.699921         0.142569         0.116368
 C         0.607694        -0.445084        -0.995054
 C         0.478287        -1.328714         0.255994
 C         0.646859         0.090702         1.146913
 O         1.232630         0.188670         2.548292
 C         1.640664        -1.287898         2.879729
 O         2.426389        -1.788096         1.716065
 C         1.988465        -1.479393         0.390295
 H         3.580112         1.432717         0.363528
 H         3.009822         1.294472        -1.207587
 H         2.148894         2.194162        -0.131386
 H        -0.283203         0.141410        -1.248247
 H         1.321136        -0.830237        -1.930505
 H        -0.144060        -2.179805         0.428222
 H        -0.246406         0.740417         0.998157
 H         2.318762        -1.289770         3.770562
 H         0.694761        -1.939707         3.021312
 H         2.615807        -2.068034        -0.386606
