19
Iteration:  2201
 C         2.748911         1.221177        -0.175591
 C         1.660498         0.151494         0.124163
 C         0.587531        -0.408893        -0.800419
 C         0.406123        -1.338468         0.326147
 C         0.549012         0.038052         1.225577
 O         1.175915         0.007004         2.519026
 C         1.665789        -1.287194         2.684448
 O         2.587548        -1.635008         1.623263
 C         1.985528        -1.393558         0.405774
 H         3.493844         1.150725         0.624223
 H         3.238458         1.076058        -1.109417
 H         2.693574         2.315879        -0.294989
 H        -0.282815         0.157079        -0.838784
 H         0.805293        -0.705816        -1.833738
 H        -0.303513        -2.114195         0.345255
 H        -0.327593         0.723491         1.198313
 H         2.340018        -1.325413         3.555634
 H         0.800758        -2.054185         2.541945
 H         2.522426        -1.949137        -0.448403
