19
Iteration:  4670charge 0 multiplicity 1
 C         2.890874         1.079763        -0.195607
 C         1.689802         0.152698        -0.003406
 C         0.503024        -0.452549        -0.954958
 C         0.470716        -1.312966         0.328549
 C         0.562391         0.125142         1.184278
 O         1.028626        -0.087296         2.509704
 C         1.667409        -1.272410         2.791986
 O         2.595129        -1.537074         1.733264
 C         1.984538        -1.332985         0.476929
 H         3.337136         1.478162         0.681215
 H         3.659721         0.551800        -0.749439
 H         2.681026         1.966796        -0.752637
 H        -0.461153         0.122154        -1.107216
 H         0.910661        -0.834818        -1.848163
 H        -0.369737        -2.036326         0.633445
 H        -0.275563         0.848325         1.142586
 H         2.351017        -1.183206         3.695330
 H         0.899380        -1.984924         2.672477
 H         2.495144        -1.759831        -0.291343
