19
Iteration:  2531charge 0 multiplicity 1
 C         2.736768         1.287907        -0.208974
 C         1.771884         0.080135         0.064182
 C         0.621843        -0.457078        -0.879629
 C         0.360090        -1.158874         0.430988
 C         0.673953         0.112842         1.197241
 O         1.060302        -0.095038         2.605868
 C         1.696041        -1.368569         2.643424
 O         2.589666        -1.592683         1.625667
 C         1.930517        -1.433970         0.411052
 H         3.306466         1.562548         0.637272
 H         3.277678         1.041528        -1.173178
 H         1.963055         2.046527        -0.495862
 H        -0.107797         0.344376        -1.171510
 H         0.898697        -1.193749        -1.690672
 H        -0.524017        -1.813374         0.521419
 H        -0.065536         0.967970         1.266626
 H         2.318705        -1.411097         3.584486
 H         0.978631        -2.164940         2.729684
 H         2.499436        -2.108111        -0.314125
