19
Iteration:  3003
 C         2.824453         1.081292        -0.203994
 C         1.712595         0.088144         0.028305
 C         0.597837        -0.337911        -0.875894
 C         0.357980        -1.193035         0.379202
 C         0.546042         0.068530         1.257074
 O         0.951975        -0.128685         2.506855
 C         1.735375        -1.371044         2.688135
 O         2.779039        -1.523825         1.683310
 C         1.914774        -1.291776         0.408309
 H         3.387108         1.080789         0.732259
 H         3.472252         0.877535        -1.143666
 H         2.350577         1.984133        -0.513476
 H        -0.263344         0.409952        -1.006942
 H         0.794001        -0.824938        -1.761784
 H        -0.343060        -2.104103         0.482990
 H        -0.193063         0.974753         1.224977
 H         2.212162        -1.021400         3.654873
 H         0.881624        -2.251244         2.805456
 H         2.176505        -2.195911        -0.196156
