19
Iteration:  3166charge 0 multiplicity 1
 C         2.799991         1.037841        -0.143984
 C         1.748231         0.072972         0.084181
 C         0.651962        -0.321448        -0.936593
 C         0.326788        -1.206870         0.400924
 C         0.623373         0.055040         1.266586
 O         0.994694        -0.115729         2.624238
 C         1.804746        -1.320687         2.688241
 O         2.577266        -1.428653         1.588228
 C         1.897843        -1.424154         0.360046
 H         3.530181         1.404200         0.578823
 H         3.401115         0.863162        -1.077964
 H         2.345170         1.936815        -0.518103
 H        -0.281534         0.353495        -1.160099
 H         0.849090        -0.886522        -1.833784
 H        -0.391274        -2.054333         0.480758
 H        -0.132244         0.954247         1.170388
 H         2.409022        -1.306926         3.618682
 H         1.065545        -2.168866         2.650783
 H         2.251634        -2.076705        -0.440929
