19
Iteration:   614charge 0 multiplicity 1
 C         2.743585         1.181694        -0.111638
 C         1.663282         0.148834         0.006600
 C         0.506121        -0.490514        -0.904774
 C         0.340688        -1.280174         0.470913
 C         0.597594         0.110358         1.128426
 O         1.143718         0.012705         2.543123
 C         1.803418        -1.245355         2.644923
 O         2.655086        -1.660225         1.656117
 C         1.926570        -1.376416         0.385762
 H         3.441053         0.871269         0.692462
 H         3.272521         1.123261        -1.087537
 H         2.396264         2.206738         0.177223
 H        -0.413723         0.027039        -1.073095
 H         0.803751        -1.169576        -1.742616
 H        -0.464792        -1.956626         0.705291
 H        -0.063068         0.978384         1.208952
 H         2.206261        -1.306307         3.605821
 H         0.956812        -1.890919         2.674557
 H         2.548156        -2.083286        -0.300610
