19
Iteration:  3848charge 0 multiplicity 1
 C         2.908091         1.121269        -0.229491
 C         1.643136         0.167028         0.043516
 C         0.531258        -0.426670        -0.927086
 C         0.418045        -1.234726         0.450851
 C         0.598084         0.080804         1.187336
 O         1.028702        -0.124487         2.534970
 C         1.706344        -1.354376         2.763343
 O         2.588524        -1.467115         1.632577
 C         1.915636        -1.354680         0.412992
 H         3.204496         1.292261         0.805038
 H         3.752240         0.638542        -0.715898
 H         2.620446         2.067833        -0.787428
 H        -0.231292         0.284015        -1.152563
 H         1.015692        -1.045473        -1.736403
 H        -0.162565        -2.180551         0.584995
 H        -0.149878         0.853615         1.314274
 H         2.405988        -1.327546         3.633378
 H         0.949683        -2.132082         2.740133
 H         2.500345        -1.945077        -0.290174
