19
Iteration:  3071
 C         2.587077         1.315116        -0.170466
 C         1.759386         0.109663         0.003630
 C         0.692647        -0.395778        -0.839838
 C         0.329628        -1.227307         0.392066
 C         0.644099         0.099860         1.127906
 O         1.202916        -0.064549         2.443116
 C         1.703498        -1.334047         2.739367
 O         2.568492        -1.788214         1.705617
 C         1.917188        -1.400796         0.470685
 H         3.285834         1.583817         0.695017
 H         3.287624         1.339492        -0.975675
 H         2.066153         2.247517        -0.386650
 H        -0.049524         0.339276        -1.089016
 H         0.958937        -0.913604        -1.754674
 H        -0.619293        -1.811508         0.365456
 H         0.203991         1.044841         1.295736
 H         2.249940        -1.123356         3.691501
 H         0.757243        -2.037720         2.910787
 H         2.354411        -2.020351        -0.319323
