19
Iteration:  2231
 C         2.568159         1.257702        -0.060432
 C         1.722606         0.040133        -0.003010
 C         0.635834        -0.393971        -0.941411
 C         0.409747        -1.179857         0.341584
 C         0.644913         0.097233         1.160814
 O         1.161184        -0.037697         2.502778
 C         1.782000        -1.241573         2.758158
 O         2.557026        -1.743158         1.637634
 C         1.931275        -1.451390         0.393497
 H         3.282648         1.121459         0.825351
 H         3.212773         1.485053        -0.997250
 H         1.983757         2.212371         0.072288
 H        -0.207911         0.380388        -1.010467
 H         0.914504        -0.957406        -1.838360
 H        -0.296803        -2.023436         0.458992
 H        -0.062673         0.947449         1.287454
 H         2.395374        -1.037495         3.686637
 H         1.054323        -1.946402         3.238802
 H         2.336748        -2.217008        -0.274608
