19
Iteration:  1718
 C         2.790511         1.374455        -0.082818
 C         1.664179         0.240373         0.061187
 C         0.394705        -0.491252        -0.871541
 C         0.537320        -1.344662         0.305885
 C         0.661353        -0.047358         1.230612
 O         1.269433         0.045702         2.451366
 C         1.672733        -1.211049         2.713994
 O         2.505828        -1.767949         1.682055
 C         1.958296        -1.413372         0.355815
 H         3.266345         1.222655         0.921272
 H         3.461648         0.995325        -0.868310
 H         2.331669         2.273262        -0.371215
 H        -0.556517         0.195355        -0.836878
 H         0.404553        -0.897630        -1.914717
 H        -0.299188        -1.913871         0.538175
 H        -0.260875         0.622555         1.206282
 H         2.293988        -1.321038         3.590302
 H         0.694744        -1.881676         2.945470
 H         2.554715        -2.008364        -0.412430
