19
Iteration:   598
 C         2.697988         1.107959        -0.144351
 C         1.666876         0.060011        -0.007545
 C         0.501457        -0.455961        -0.855698
 C         0.485709        -1.257570         0.487849
 C         0.639414         0.084632         1.257723
 O         1.171386         0.083606         2.522944
 C         1.600363        -1.297289         2.684481
 O         2.610141        -1.606342         1.578670
 C         2.024506        -1.348983         0.374404
 H         3.472973         0.979275         0.638527
 H         3.178278         1.116897        -1.121834
 H         2.236801         2.085540        -0.099673
 H        -0.173023         0.435092        -1.042614
 H         0.813339        -1.027868        -1.778211
 H        -0.178040        -2.223701         0.755431
 H        -0.290562         0.711594         1.187584
 H         2.293252        -1.363345         3.594705
 H         0.809708        -2.116816         2.607940
 H         2.377000        -1.922950        -0.436737
