19
Iteration:  4496
 C         2.847876         1.133852        -0.258160
 C         1.728209         0.155936         0.025804
 C         0.670888        -0.394552        -0.918639
 C         0.446445        -1.313249         0.290300
 C         0.452984         0.024372         1.195131
 O         1.015336        -0.033466         2.535059
 C         1.694174        -1.203151         2.805138
 O         2.593385        -1.594416         1.713807
 C         1.942155        -1.391262         0.510433
 H         3.417133         1.223739         0.668683
 H         3.529615         0.656888        -1.038514
 H         2.600902         2.094636        -0.717249
 H        -0.194274         0.270590        -1.233517
 H         1.016232        -0.807637        -1.843170
 H        -0.420697        -2.014552         0.367042
 H        -0.405898         0.692033         1.154440
 H         2.247856        -1.172321         3.795347
 H         0.993112        -2.058589         2.927183
 H         2.515743        -1.961810        -0.362562
