19
Iteration:   318
 C         2.833106         1.149854        -0.041217
 C         1.593165         0.177696        -0.043392
 C         0.423645        -0.477574        -0.929364
 C         0.383980        -1.351797         0.420282
 C         0.610101         0.107517         1.102585
 O         1.207348         0.027088         2.501708
 C         1.777521        -1.275517         2.715950
 O         2.622080        -1.627284         1.635742
 C         1.907722        -1.357388         0.457904
 H         3.207307         1.258555         1.044782
 H         3.645413         0.753136        -0.640900
 H         2.535821         2.190367        -0.424544
 H        -0.388539         0.221303        -0.954836
 H         0.794706        -0.874636        -1.946648
 H        -0.262880        -2.206281         0.432218
 H        -0.265266         0.859176         1.154051
 H         2.398276        -1.118359         3.607463
 H         0.927006        -1.937509         3.087805
 H         2.225127        -2.195664        -0.263315
