19
Iteration:  1878charge 0 multiplicity 1
 C         2.718514         1.415836        -0.065107
 C         1.846229         0.112183         0.028207
 C         0.515727        -0.499350        -0.967109
 C         0.287017        -1.204401         0.443608
 C         0.660732         0.029555         1.148732
 O         1.084515        -0.053863         2.504045
 C         1.848376        -1.261211         2.740046
 O         2.540797        -1.772772         1.599041
 C         1.920046        -1.444108         0.416708
 H         3.351872         1.681018         0.811872
 H         3.496605         1.425850        -0.887581
 H         2.225754         2.362148        -0.375756
 H        -0.253945         0.255207        -1.139607
 H         0.761335        -0.941629        -1.899778
 H        -0.503004        -1.981708         0.866486
 H        -0.180440         0.780838         1.111955
 H         2.618394        -1.051171         3.588496
 H         1.079340        -1.993481         3.201738
 H         2.274701        -2.086457        -0.379086
