19
Iteration:  3544charge 0 multiplicity 1
 C         2.697974         1.247408        -0.219088
 C         1.781939         0.079446         0.080572
 C         0.616393        -0.358431        -0.956708
 C         0.365263        -1.213177         0.462668
 C         0.676475         0.038291         1.239013
 O         1.062534        -0.067735         2.526545
 C         1.728679        -1.285330         2.722248
 O         2.570783        -1.640947         1.647096
 C         1.936780        -1.454424         0.402209
 H         3.522134         1.379381         0.440765
 H         3.205285         1.271993        -1.203185
 H         2.229423         2.252691        -0.294104
 H        -0.197453         0.343944        -1.143279
 H         1.089012        -0.918828        -1.858756
 H        -0.531074        -1.822585         0.767000
 H        -0.154102         0.848533         1.082520
 H         2.307096        -1.288231         3.662894
 H         0.863630        -2.103650         2.804263
 H         2.327833        -2.256223        -0.310469
