19
Iteration:  2927charge 0 multiplicity 1
 C         2.672937         1.304438        -0.063701
 C         1.695065         0.056251         0.059515
 C         0.576669        -0.423591        -0.877182
 C         0.442553        -1.274930         0.333644
 C         0.642773         0.059989         1.156125
 O         1.203795        -0.000076         2.444349
 C         1.711710        -1.230234         2.707133
 O         2.550745        -1.759446         1.668770
 C         1.906106        -1.383718         0.422731
 H         3.305047         1.293094         0.859836
 H         3.355256         1.224736        -0.995575
 H         2.171506         2.251127        -0.067076
 H        -0.187669         0.363657        -1.185230
 H         0.949677        -0.926330        -1.733053
 H        -0.240606        -2.169712         0.556296
 H        -0.109749         0.833218         1.219972
 H         2.134573        -1.195476         3.733884
 H         0.802743        -1.757831         2.761907
 H         2.412001        -2.050972        -0.330198
