19
Iteration:  4792charge 0 multiplicity 1
 C         2.637852         1.261439        -0.156913
 C         1.776659         0.100280        -0.040410
 C         0.650034        -0.495346        -0.977279
 C         0.386344        -1.211566         0.316915
 C         0.636487         0.100530         1.135975
 O         1.182216         0.029936         2.463857
 C         1.648534        -1.291120         2.856514
 O         2.541918        -1.688407         1.767426
 C         1.967206        -1.459477         0.493545
 H         3.435473         1.321491         0.603953
 H         3.183285         1.221089        -1.102317
 H         2.087115         2.206830        -0.167725
 H         0.002285         0.412317        -1.244036
 H         0.784736        -1.094072        -1.919677
 H        -0.345193        -2.038101         0.455065
 H        -0.084205         0.914641         1.067801
 H         2.077651        -1.292251         3.875229
 H         0.784471        -2.127292         2.889687
 H         2.490813        -2.030252        -0.203096
